A71EV2A-x4794_A_201_1_A71EV2A-x0911+A+147+1__LIG
     RDKit          3D

 18 19  0  0  0  0  0  0  0  0999 V2000
    7.6000   13.3740   22.7680 O   0  0  0  0  0  0  0  0  0  0  0  0
    8.5140   13.6660   23.5240 C   0  0  0  0  0  0  0  0  0  0  0  0
    9.5580   14.4100   23.1300 N   0  0  0  0  0  0  0  0  0  0  0  0
    9.3240   15.3700   22.0520 C   0  0  0  0  0  0  0  0  0  0  0  0
   10.3050   15.1180   20.9370 C   0  0  1  0  0  0  0  0  0  0  0  0
   10.0100   15.9970   19.8610 O   0  0  0  0  0  0  0  0  0  0  0  0
   11.7370   15.3240   21.4120 C   0  0  0  0  0  0  0  0  0  0  0  0
   11.9420   15.1530   22.9190 C   0  0  0  0  0  0  0  0  0  0  0  0
   10.9480   14.1960   23.5780 C   0  0  0  0  0  0  0  0  0  0  0  0
    8.5630   13.2210   24.9710 C   0  0  0  0  0  0  0  0  0  0  0  0
    7.6060   12.0820   25.2410 C   0  0  0  0  0  0  0  0  0  0  0  0
    7.8220   10.7800   24.7730 C   0  0  0  0  0  0  0  0  0  0  0  0
    9.1260   10.5700   23.5960 S   0  0  0  0  0  0  0  0  0  0  0  0
    9.3930    8.8200   23.5120 C   0  0  0  0  0  0  0  0  0  0  0  0
    6.5160   12.3140   26.0740 C   0  0  0  0  0  0  0  0  0  0  0  0
    5.6970   11.2810   26.4840 C   0  0  0  0  0  0  0  0  0  0  0  0
    5.9370   10.0040   26.0520 C   0  0  0  0  0  0  0  0  0  0  0  0
    6.9890    9.7430   25.1840 C   0  0  0  0  0  0  0  0  0  0  0  0
 14 13  1  0
 13 12  1  0
 12 18  2  0
 18 17  1  0
 17 16  2  0
 16 15  1  0
 15 11  2  0
 12 11  1  0
 11 10  1  0
 10  2  1  0
  2  1  2  0
  3  2  1  0
  3  9  1  0
  9  8  1  0
  8  7  1  0
  7  5  1  0
  5  6  1  6
  5  4  1  0
  4  3  1  0
M  END
$$$$
