A71EV2A-x4496_A_201_1_A71EV2A-x0911+A+147+1__LIG
     RDKit          3D

 23 25  0  0  0  0  0  0  0  0999 V2000
    8.2130   10.6510   24.5630 F   0  0  0  0  0  0  0  0  0  0  0  0
    9.4630   11.0120   24.3910 C   0  0  0  0  0  0  0  0  0  0  0  0
    9.6600   11.1920   23.1000 F   0  0  0  0  0  0  0  0  0  0  0  0
   10.2190   10.0240   24.7710 F   0  0  0  0  0  0  0  0  0  0  0  0
    9.7690   12.2610   25.1850 N   0  0  0  0  0  0  0  0  0  0  0  0
   10.8860   12.3470   25.9810 N   0  0  0  0  0  0  0  0  0  0  0  0
   10.7690   13.5260   26.5730 C   0  0  0  0  0  0  0  0  0  0  0  0
    9.6240   14.2090   26.1890 C   0  0  0  0  0  0  0  0  0  0  0  0
    8.9880   13.3760   25.2910 C   0  0  0  0  0  0  0  0  0  0  0  0
    7.7460   13.5740   24.6180 C   0  0  0  0  0  0  0  0  0  0  0  0
    6.6540   14.3830   25.3180 C   0  0  0  0  0  0  0  0  0  0  0  0
    6.4670   12.9250   25.1500 C   0  0  0  0  0  0  0  0  0  0  0  0
    7.7920   13.7270   23.0910 C   0  0  0  0  0  0  0  0  0  0  0  0
    7.0150   13.0460   22.4590 O   0  0  0  0  0  0  0  0  0  0  0  0
    8.6020   14.6490   22.5370 N   0  0  0  0  0  0  0  0  0  0  0  0
    9.3890   15.6060   23.3170 C   0  0  0  0  0  0  0  0  0  0  0  0
   10.8630   15.4090   23.0790 C   0  0  0  0  0  0  0  0  0  0  0  0
   11.1740   15.6290   21.6080 C   0  0  0  0  0  0  0  0  0  0  0  0
    8.7700   14.9000   21.1080 C   0  0  0  0  0  0  0  0  0  0  0  0
   10.2430   14.8010   20.7030 C   0  0  1  0  0  0  0  0  0  0  0  0
   10.3500   15.2540   19.2550 C   0  0  0  0  0  0  0  0  0  0  0  0
   10.0080   16.3880   18.9130 O   0  0  0  0  0  0  0  0  0  0  0  0
   10.9310   14.4040   18.4310 N   0  0  0  0  0  0  0  0  0  0  0  0
 23 21  1  0
 22 21  2  0
 20 21  1  6
 20 18  1  0
 18 17  1  0
 17 16  1  0
 16 15  1  0
 15 13  1  0
 14 13  2  0
 13 10  1  0
 10  9  1  0
  9  8  2  0
  8  7  1  0
  7  6  2  0
  6  5  1  0
  9  5  1  0
  5  2  1  0
  3  2  1  0
  4  2  1  0
  2  1  1  0
 10 12  1  0
 12 11  1  0
 11 10  1  0
 19 15  1  0
 20 19  1  0
M  END
$$$$
