XX01ZVNS2B-x3830_B_203_5_XX01ZVNS2B-x4590+B+203+1__LIG
     RDKit          3D

 26 29  0  0  0  0  0  0  0  0999 V2000
  -10.2140    3.7840  -18.0470 Cl  0  0  0  0  0  0  0  0  0  0  0  0
   -8.7200    4.2570  -17.2830 C   0  0  0  0  0  0  0  0  0  0  0  0
   -8.6660    4.3420  -15.8980 C   0  0  0  0  0  0  0  0  0  0  0  0
   -7.6250    4.5280  -18.0760 C   0  0  0  0  0  0  0  0  0  0  0  0
   -6.4360    4.8830  -17.4510 C   0  0  0  0  0  0  0  0  0  0  0  0
   -6.3220    4.9830  -16.0500 C   0  0  0  0  0  0  0  0  0  0  0  0
   -4.9670    5.3290  -15.8330 C   0  0  0  0  0  0  0  0  0  0  0  0
   -4.3040    5.4320  -16.9690 N   0  0  0  0  0  0  0  0  0  0  0  0
   -5.2060    5.1600  -17.9580 N   0  0  0  0  0  0  0  0  0  0  0  0
   -7.4710    4.7160  -15.2750 C   0  0  0  0  0  0  0  0  0  0  0  0
   -7.4390    4.8960  -13.7820 C   0  0  0  0  0  0  0  0  0  0  0  0
   -6.6420    5.6800  -13.2720 O   0  0  0  0  0  0  0  0  0  0  0  0
   -8.3060    4.1440  -13.0540 N   0  0  0  0  0  0  0  0  0  0  0  0
   -8.4330    4.1230  -11.6330 C   0  0  0  0  0  0  0  0  0  0  0  0
   -8.7010    2.9360  -10.9500 C   0  0  0  0  0  0  0  0  0  0  0  0
   -8.2080    5.2960  -10.9090 C   0  0  0  0  0  0  0  0  0  0  0  0
   -8.2020    5.2750   -9.5230 C   0  0  0  0  0  0  0  0  0  0  0  0
   -8.4240    4.0790   -8.8480 C   0  0  0  0  0  0  0  0  0  0  0  0
   -8.6930    2.9200   -9.5560 C   0  0  0  0  0  0  0  0  0  0  0  0
   -8.9330    1.7790   -8.6120 C   0  0  0  0  0  0  0  0  0  0  0  0
   -8.6180    2.2890   -7.2750 N   0  0  0  0  0  0  0  0  0  0  0  0
   -8.2790    3.7110   -7.3890 C   0  0  2  0  0  0  0  0  0  0  0  0
   -9.0720    4.5980   -6.4090 C   0  0  0  0  0  0  0  0  0  0  0  0
   -8.5090    5.9830   -6.1760 C   0  0  0  0  0  0  0  0  0  0  0  0
   -9.2180    6.9650   -6.1950 O   0  0  0  0  0  0  0  0  0  0  0  0
   -7.2140    6.0310   -5.9340 O   0  0  0  0  0  0  0  0  0  0  0  0
 25 24  2  0
 26 24  1  0
 24 23  1  0
 22 23  1  1
 22 21  1  0
 21 20  1  0
 20 19  1  0
 19 15  2  0
 15 14  1  0
 14 13  1  0
 13 11  1  0
 12 11  2  0
 11 10  1  0
 10  3  1  0
  3  2  2  0
  2  1  1  0
  4  2  1  0
  5  4  2  0
  5  9  1  0
  9  8  1  0
  8  7  2  0
  7  6  1  0
 10  6  2  0
  6  5  1  0
 16 14  2  0
 17 16  1  0
 18 17  2  0
 19 18  1  0
 22 18  1  0
M  END
$$$$
