XX01ZVNS2B-x3059_B_203_1_XX01ZVNS2B-x4590+B+203+1__LIG
     RDKit          3D

 30 33  0  0  0  0  0  0  0  0999 V2000
   -6.5040    5.3570  -13.0810 O   0  0  0  0  0  0  0  0  0  0  0  0
   -7.4210    4.7230  -13.6000 C   0  0  0  0  0  0  0  0  0  0  0  0
   -8.3740    4.0780  -12.8780 N   0  0  0  0  0  0  0  0  0  0  0  0
   -8.4760    4.0460  -11.4590 C   0  0  0  0  0  0  0  0  0  0  0  0
   -8.7070    2.8510  -10.7790 C   0  0  0  0  0  0  0  0  0  0  0  0
   -8.7830    2.8390   -9.3880 C   0  0  0  0  0  0  0  0  0  0  0  0
   -9.0960    1.7030   -8.4610 C   0  0  0  0  0  0  0  0  0  0  0  0
   -8.8340    2.2960   -7.1570 N   0  0  0  0  0  0  0  0  0  0  0  0
   -8.6910    3.7530   -7.1970 C   0  0  0  0  0  0  0  0  0  0  0  0
   -8.6000    4.0140   -8.6710 C   0  0  0  0  0  0  0  0  0  0  0  0
   -8.3700    5.2050   -9.3500 C   0  0  0  0  0  0  0  0  0  0  0  0
   -8.3150    5.2250  -10.7340 C   0  0  0  0  0  0  0  0  0  0  0  0
   -7.5070    4.5960  -15.0890 C   0  0  0  0  0  0  0  0  0  0  0  0
   -8.6390    4.2220  -15.8070 C   0  0  0  0  0  0  0  0  0  0  0  0
   -8.5760    4.1840  -17.1890 C   0  0  0  0  0  0  0  0  0  0  0  0
  -10.0220    3.8260  -18.0910 Cl  0  0  0  0  0  0  0  0  0  0  0  0
   -7.4140    4.4740  -17.8790 C   0  0  0  0  0  0  0  0  0  0  0  0
   -6.3370    4.9120  -15.7700 C   0  0  0  0  0  0  0  0  0  0  0  0
   -6.2810    4.8370  -17.1590 C   0  0  0  0  0  0  0  0  0  0  0  0
   -5.0800    5.0700  -17.8700 N   0  0  0  0  0  0  0  0  0  0  0  0
   -3.8260    5.1920  -17.3590 C   0  0  0  0  0  0  0  0  0  0  0  0
   -3.5170    5.2070  -16.1840 O   0  0  0  0  0  0  0  0  0  0  0  0
   -2.9580    5.3890  -18.3730 O   0  0  0  0  0  0  0  0  0  0  0  0
   -1.5940    5.7430  -18.0010 C   0  0  0  0  0  0  0  0  0  0  0  0
   -1.3720    7.1560  -18.4590 C   0  0  0  0  0  0  0  0  0  0  0  0
   -0.3780    7.4590  -19.3790 C   0  0  0  0  0  0  0  0  0  0  0  0
   -0.3210    8.7110  -19.9680 C   0  0  0  0  0  0  0  0  0  0  0  0
   -1.2470    9.6750  -19.6390 C   0  0  0  0  0  0  0  0  0  0  0  0
   -2.2090    9.4030  -18.6910 C   0  0  0  0  0  0  0  0  0  0  0  0
   -2.2680    8.1530  -18.0990 C   0  0  0  0  0  0  0  0  0  0  0  0
 22 21  2  0
 21 20  1  0
 20 19  1  0
 19 17  2  0
 17 15  1  0
 16 15  1  0
 15 14  2  0
 14 13  1  0
 13  2  1  0
  2  1  2  0
  3  2  1  0
  4  3  1  0
  4 12  2  0
 12 11  1  0
 11 10  2  0
 10  6  1  0
  6  5  2  0
  5  4  1  0
  7  6  1  0
  8  7  1  0
  9  8  1  0
 10  9  1  0
 18 13  2  0
 19 18  1  0
 23 21  1  0
 24 23  1  0
 25 24  1  0
 25 30  2  0
 30 29  1  0
 29 28  2  0
 28 27  1  0
 27 26  2  0
 26 25  1  0
M  END
$$$$
