A71EV2A-x4824_C_201_1_A71EV2A-x0911+A+147+1__LIG
     RDKit          3D

 20 21  0  0  0  0  0  0  0  0999 V2000
   10.3820   16.6480   19.2650 O   0  0  0  0  0  0  0  0  0  0  0  0
   10.7860   15.4910   19.4850 C   0  0  0  0  0  0  0  0  0  0  0  0
   11.1430   14.6330   18.5270 N   0  0  0  0  0  0  0  0  0  0  0  0
   10.8300   14.9400   20.8970 C   0  0  1  0  0  0  0  0  0  0  0  0
   11.9390   15.5980   21.7460 C   0  0  0  0  0  0  0  0  0  0  0  0
   11.9450   15.0060   23.1560 C   0  0  0  0  0  0  0  0  0  0  0  0
   10.5800   15.1600   23.8110 C   0  0  0  0  0  0  0  0  0  0  0  0
    9.4850   15.1730   21.5830 C   0  0  0  0  0  0  0  0  0  0  0  0
    9.5270   14.6070   22.9340 N   0  0  0  0  0  0  0  0  0  0  0  0
    8.6340   13.6590   23.2840 C   0  0  0  0  0  0  0  0  0  0  0  0
    7.6940   13.3040   22.6140 O   0  0  0  0  0  0  0  0  0  0  0  0
    8.8850   13.1920   24.5410 O   0  0  0  0  0  0  0  0  0  0  0  0
    8.0130   12.1850   24.9960 C   0  0  0  0  0  0  0  0  0  0  0  0
    8.2760   10.8700   24.6230 C   0  0  0  0  0  0  0  0  0  0  0  0
    9.6510   10.6130   23.5420 S   0  0  0  0  0  0  0  0  0  0  0  0
    9.6820    8.8010   23.3720 C   0  0  0  0  0  0  0  0  0  0  0  0
    6.9960   12.4940   25.8840 C   0  0  0  0  0  0  0  0  0  0  0  0
    6.2430   11.4670   26.4250 C   0  0  0  0  0  0  0  0  0  0  0  0
    6.4900   10.1560   26.0670 C   0  0  0  0  0  0  0  0  0  0  0  0
    7.5000    9.8470   25.1610 C   0  0  0  0  0  0  0  0  0  0  0  0
 16 15  1  0
 15 14  1  0
 14 20  2  0
 20 19  1  0
 19 18  2  0
 18 17  1  0
 17 13  2  0
 14 13  1  0
 13 12  1  0
 12 10  1  0
 11 10  2  0
 10  9  1  0
  9  7  1  0
  7  6  1  0
  6  5  1  0
  5  4  1  0
  4  2  1  6
  3  2  1  0
  2  1  2  0
  8  4  1  0
  9  8  1  0
M  END
$$$$
