XX01ZVNS2B-x5230_B_203_6_XX01ZVNS2B-x4590+B+203+1__LIG
     RDKit          3D

 28 32  0  0  0  0  0  0  0  0999 V2000
   -9.6750    3.6430  -17.5830 F   0  0  0  0  0  0  0  0  0  0  0  0
   -8.5930    4.1000  -16.9130 C   0  0  0  0  0  0  0  0  0  0  0  0
   -8.6150    4.1500  -15.5390 C   0  0  0  0  0  0  0  0  0  0  0  0
   -7.4890    4.4920  -17.6500 C   0  0  0  0  0  0  0  0  0  0  0  0
   -6.3450    4.9510  -16.9740 C   0  0  0  0  0  0  0  0  0  0  0  0
   -5.3680    5.2810  -17.9780 C   0  0  0  0  0  0  0  0  0  0  0  0
   -4.0040    5.8540  -17.7120 C   0  0  0  0  0  0  0  0  0  0  0  0
   -2.9470    5.3950  -18.7320 C   0  0  0  0  0  0  0  0  0  0  0  0
   -1.6010    6.0230  -18.4050 C   0  0  0  0  0  0  0  0  0  0  0  0
   -1.6770    6.8580  -17.2380 O   0  0  0  0  0  0  0  0  0  0  0  0
   -2.6180    7.9210  -17.4370 C   0  0  0  0  0  0  0  0  0  0  0  0
   -4.0280    7.3890  -17.6150 C   0  0  0  0  0  0  0  0  0  0  0  0
   -5.9500    5.0110  -19.1820 C   0  0  0  0  0  0  0  0  0  0  0  0
   -7.2240    4.5330  -18.9980 N   0  0  0  0  0  0  0  0  0  0  0  0
   -6.3510    4.9970  -15.5780 C   0  0  0  0  0  0  0  0  0  0  0  0
   -7.4830    4.6050  -14.8620 C   0  0  0  0  0  0  0  0  0  0  0  0
   -7.3960    4.7200  -13.3710 C   0  0  0  0  0  0  0  0  0  0  0  0
   -6.5410    5.4300  -12.8440 O   0  0  0  0  0  0  0  0  0  0  0  0
   -8.2990    4.0010  -12.6620 N   0  0  0  0  0  0  0  0  0  0  0  0
   -8.4030    3.9560  -11.2420 C   0  0  0  0  0  0  0  0  0  0  0  0
   -8.6740    2.7520  -10.5980 C   0  0  0  0  0  0  0  0  0  0  0  0
   -8.7810    2.7060   -9.2080 C   0  0  0  0  0  0  0  0  0  0  0  0
   -9.1190    1.5540   -8.3060 C   0  0  0  0  0  0  0  0  0  0  0  0
   -8.7740    2.1000   -6.9890 N   0  0  0  0  0  0  0  0  0  0  0  0
   -8.7420    3.5660   -6.9960 C   0  0  0  0  0  0  0  0  0  0  0  0
   -8.6060    3.8640   -8.4610 C   0  0  0  0  0  0  0  0  0  0  0  0
   -8.3420    5.0680   -9.1050 C   0  0  0  0  0  0  0  0  0  0  0  0
   -8.2400    5.1160  -10.4870 C   0  0  0  0  0  0  0  0  0  0  0  0
 18 17  2  0
 19 17  1  0
 20 19  1  0
 20 28  2  0
 28 27  1  0
 27 26  2  0
 26 22  1  0
 22 21  2  0
 21 20  1  0
 23 22  1  0
 24 23  1  0
 25 24  1  0
 26 25  1  0
 17 16  1  0
 16  3  1  0
  3  2  2  0
  2  1  1  0
  4  2  1  0
  4 14  1  0
 14 13  1  0
 13  6  2  0
  7  6  1  0
  7 12  1  0
 12 11  1  0
 11 10  1  0
 10  9  1  0
  9  8  1  0
  8  7  1  0
  6  5  1  0
  5  4  2  0
 15  5  1  0
 16 15  2  0
M  END
$$$$
