A71EV2A-x4899_A_201_1_A71EV2A-x0911+A+147+1__LIG
     RDKit          3D

 21 22  0  0  0  0  0  0  0  0999 V2000
   10.4230   16.7110   19.2030 O   0  0  0  0  0  0  0  0  0  0  0  0
   10.7980   15.5520   19.4350 C   0  0  0  0  0  0  0  0  0  0  0  0
   11.0760   14.6800   18.4700 N   0  0  0  0  0  0  0  0  0  0  0  0
   10.8110   14.9940   20.8490 C   0  0  1  0  0  0  0  0  0  0  0  0
   11.7560   15.7590   21.7790 C   0  0  0  0  0  0  0  0  0  0  0  0
   11.6840   15.1600   23.1820 C   0  0  0  0  0  0  0  0  0  0  0  0
   10.2510   15.1250   23.6900 C   0  0  0  0  0  0  0  0  0  0  0  0
    9.3710   15.1120   21.3390 C   0  0  0  0  0  0  0  0  0  0  0  0
    9.2280   14.6430   22.7320 N   0  0  0  0  0  0  0  0  0  0  0  0
    7.7980   14.1400   23.2930 S   0  0  0  0  0  0  0  0  0  0  0  0
    7.1300   13.4980   22.2070 O   0  0  0  0  0  0  0  0  0  0  0  0
    7.2010   15.2950   23.8890 O   0  0  0  0  0  0  0  0  0  0  0  0
    8.1480   13.1170   24.5470 N   0  0  0  0  0  0  0  0  0  0  0  0
    8.4180   11.7530   24.2990 C   0  0  0  0  0  0  0  0  0  0  0  0
    7.6660   10.7860   24.9550 C   0  0  0  0  0  0  0  0  0  0  0  0
    6.8200   11.2500   25.9110 O   0  0  0  0  0  0  0  0  0  0  0  0
    5.8760   10.3250   26.4740 C   0  0  0  0  0  0  0  0  0  0  0  0
    9.3990   11.3570   23.3990 C   0  0  0  0  0  0  0  0  0  0  0  0
    9.5600   10.0030   23.1620 C   0  0  0  0  0  0  0  0  0  0  0  0
    8.7400    9.1220   23.8180 C   0  0  0  0  0  0  0  0  0  0  0  0
    7.8070    9.4910   24.7160 N   0  0  0  0  0  0  0  0  0  0  0  0
 17 16  1  0
 16 15  1  0
 15 21  2  0
 21 20  1  0
 20 19  2  0
 19 18  1  0
 18 14  2  0
 15 14  1  0
 14 13  1  0
 13 10  1  0
 11 10  2  0
 12 10  2  0
 10  9  1  0
  9  7  1  0
  7  6  1  0
  6  5  1  0
  5  4  1  0
  4  2  1  6
  3  2  1  0
  2  1  2  0
  8  4  1  0
  9  8  1  0
M  END
$$$$
