XX01ZVNS2B-x3880_B_203_1_XX01ZVNS2B-x4590+B+203+1__LIG
     RDKit          3D

 21 24  0  0  0  0  0  0  0  0999 V2000
   -6.4890    5.6080  -13.0640 O   0  0  0  0  0  0  0  0  0  0  0  0
   -7.2920    4.8450  -13.5970 C   0  0  0  0  0  0  0  0  0  0  0  0
   -7.3800    4.7490  -15.0860 C   0  0  0  0  0  0  0  0  0  0  0  0
   -6.2030    4.9490  -15.8100 C   0  0  0  0  0  0  0  0  0  0  0  0
   -6.2510    4.8790  -17.2020 C   0  0  0  0  0  0  0  0  0  0  0  0
   -5.2510    5.0400  -18.1640 N   0  0  0  0  0  0  0  0  0  0  0  0
   -5.8690    4.8680  -19.3160 C   0  0  0  0  0  0  0  0  0  0  0  0
   -7.1910    4.6090  -19.1910 N   0  0  0  0  0  0  0  0  0  0  0  0
   -7.4600    4.6140  -17.8440 C   0  0  0  0  0  0  0  0  0  0  0  0
   -8.6380    4.4230  -17.1370 C   0  0  0  0  0  0  0  0  0  0  0  0
   -8.5860    4.4970  -15.7540 C   0  0  0  0  0  0  0  0  0  0  0  0
   -8.1550    4.0640  -12.8970 N   0  0  0  0  0  0  0  0  0  0  0  0
   -8.3090    4.0270  -11.4870 C   0  0  0  0  0  0  0  0  0  0  0  0
   -8.6610    2.8480  -10.8310 C   0  0  0  0  0  0  0  0  0  0  0  0
   -8.8070    2.8360   -9.4460 C   0  0  0  0  0  0  0  0  0  0  0  0
   -9.1920    1.7070   -8.5350 C   0  0  0  0  0  0  0  0  0  0  0  0
   -8.8550    2.2630   -7.2260 N   0  0  0  0  0  0  0  0  0  0  0  0
   -8.7610    3.7240   -7.2460 C   0  0  0  0  0  0  0  0  0  0  0  0
   -8.5930    3.9910   -8.7130 C   0  0  0  0  0  0  0  0  0  0  0  0
   -8.2490    5.1680   -9.3680 C   0  0  0  0  0  0  0  0  0  0  0  0
   -8.1120    5.1900  -10.7440 C   0  0  0  0  0  0  0  0  0  0  0  0
  2  1  2  0
 12  2  1  0
 13 12  1  0
 13 21  2  0
 21 20  1  0
 20 19  2  0
 19 15  1  0
 15 14  2  0
 14 13  1  0
 16 15  1  0
 17 16  1  0
 18 17  1  0
 19 18  1  0
  3  2  1  0
  3 11  2  0
 11 10  1  0
 10  9  2  0
  9  8  1  0
  8  7  1  0
  7  6  2  0
  6  5  1  0
  9  5  1  0
  5  4  2  0
  4  3  1  0
M  END
$$$$
