XX01ZVNS2B-x2262_B_301_1_XX01ZVNS2B-x4590+B+203+1__LIG
     RDKit          3D

 21 23  0  0  0  0  0  0  0  0999 V2000
   -8.5160    7.8340  -11.7740 C   0  0  0  0  0  0  0  0  0  0  0  0
   -8.3650    6.3570  -11.6400 C   0  0  0  0  0  0  0  0  0  0  0  0
   -8.3480    5.8020  -10.4290 N   0  0  0  0  0  0  0  0  0  0  0  0
   -8.2210    4.4700  -10.5820 C   0  0  0  0  0  0  0  0  0  0  0  0
   -8.1560    3.5710   -9.3860 C   0  0  1  0  0  0  0  0  0  0  0  0
   -9.5150    3.0550   -8.9530 C   0  0  0  0  0  0  0  0  0  0  0  0
   -9.4500    2.3570   -7.5930 C   0  0  0  0  0  0  0  0  0  0  0  0
   -8.1130    1.6660   -7.4050 C   0  0  0  0  0  0  0  0  0  0  0  0
   -7.4910    1.2690   -8.6810 N   0  0  0  0  0  0  0  0  0  0  0  0
   -7.1780    2.4170   -9.5630 C   0  0  0  0  0  0  0  0  0  0  0  0
   -8.1600    4.1740  -11.9260 N   0  0  0  0  0  0  0  0  0  0  0  0
   -8.2260    5.3720  -12.6010 C   0  0  0  0  0  0  0  0  0  0  0  0
   -8.2090    5.5130  -14.0620 C   0  0  0  0  0  0  0  0  0  0  0  0
   -7.7160    6.5090  -14.5750 O   0  0  0  0  0  0  0  0  0  0  0  0
   -8.8390    4.5420  -14.7680 N   0  0  0  0  0  0  0  0  0  0  0  0
   -8.9440    4.4560  -16.1650 C   0  0  0  0  0  0  0  0  0  0  0  0
  -10.0090    3.8260  -16.8050 C   0  0  0  0  0  0  0  0  0  0  0  0
  -10.0290    3.8070  -18.1790 C   0  0  0  0  0  0  0  0  0  0  0  0
   -8.9760    4.3410  -18.8830 C   0  0  0  0  0  0  0  0  0  0  0  0
   -7.9580    4.9260  -18.1790 C   0  0  0  0  0  0  0  0  0  0  0  0
   -7.9130    4.9810  -16.8380 N   0  0  0  0  0  0  0  0  0  0  0  0
  1  2  1  0
  2  3  1  0
  3  4  2  0
  5  4  1  6
  5  6  1  0
  6  7  1  0
  7  8  1  0
  8  9  1  0
  9 10  1  0
  4 11  1  0
 11 12  1  0
 12 13  1  0
 13 14  2  0
 13 15  1  0
 15 16  1  0
 16 17  2  0
 17 18  1  0
 18 19  2  0
 19 20  1  0
 20 21  2  0
  2 12  2  0
 16 21  1  0
  5 10  1  0
M  END
$$$$
