A71EV2A-x4035_A_201_1_A71EV2A-x0911+A+147+1__LIG
     RDKit          3D

 21 22  0  0  0  0  0  0  0  0999 V2000
   10.3010   16.6950   19.2760 O   0  0  0  0  0  0  0  0  0  0  0  0
   10.6490   15.5300   19.4880 C   0  0  0  0  0  0  0  0  0  0  0  0
   11.0340   14.7070   18.5280 N   0  0  0  0  0  0  0  0  0  0  0  0
   10.6490   14.9540   20.8970 C   0  0  1  0  0  0  0  0  0  0  0  0
   11.7760   15.5520   21.7520 C   0  0  0  0  0  0  0  0  0  0  0  0
   11.7360   15.0110   23.1860 C   0  0  0  0  0  0  0  0  0  0  0  0
   10.3570   15.2250   23.8070 C   0  0  0  0  0  0  0  0  0  0  0  0
    9.3000   15.2510   21.5650 C   0  0  0  0  0  0  0  0  0  0  0  0
    9.2850   14.7200   22.9310 N   0  0  0  0  0  0  0  0  0  0  0  0
    8.3960   13.7280   23.2540 C   0  0  0  0  0  0  0  0  0  0  0  0
    7.5800   13.3040   22.4520 O   0  0  0  0  0  0  0  0  0  0  0  0
    8.4670   13.2530   24.5200 N   0  0  0  0  0  0  0  0  0  0  0  0
    7.5880   12.2210   24.9560 C   0  0  0  0  0  0  0  0  0  0  0  0
    7.8360   10.8820   24.6040 C   0  0  0  0  0  0  0  0  0  0  0  0
    8.8920   10.6880   23.7480 O   0  0  0  0  0  0  0  0  0  0  0  0
    9.2830    9.3450   23.4440 C   0  0  0  0  0  0  0  0  0  0  0  0
    6.5180   12.4950   25.8070 C   0  0  0  0  0  0  0  0  0  0  0  0
    6.1140   14.1380   26.2020 Cl  0  0  0  0  0  0  0  0  0  0  0  0
    5.7350   11.4920   26.3370 C   0  0  0  0  0  0  0  0  0  0  0  0
    6.0070   10.1780   26.0030 C   0  0  0  0  0  0  0  0  0  0  0  0
    7.0420    9.8680   25.1300 C   0  0  0  0  0  0  0  0  0  0  0  0
 16 15  1  0
 15 14  1  0
 14 21  2  0
 21 20  1  0
 20 19  2  0
 19 17  1  0
 18 17  1  0
 17 13  2  0
 14 13  1  0
 13 12  1  0
 12 10  1  0
 11 10  2  0
 10  9  1  0
  9  7  1  0
  7  6  1  0
  6  5  1  0
  5  4  1  0
  4  2  1  6
  3  2  1  0
  2  1  2  0
  8  4  1  0
  9  8  1  0
M  END
$$$$
