A71EV2A-x5082_C_201_2_A71EV2A-x0911+A+147+1__LIG
     RDKit          3D

 20 21  0  0  0  0  0  0  0  0999 V2000
   10.3510   16.7770   19.1220 O   0  0  0  0  0  0  0  0  0  0  0  0
   10.7070   15.6160   19.3930 C   0  0  0  0  0  0  0  0  0  0  0  0
   10.9580   14.6940   18.4720 N   0  0  0  0  0  0  0  0  0  0  0  0
   10.8220   15.1590   20.8360 C   0  0  1  0  0  0  0  0  0  0  0  0
   11.9820   15.8790   21.5520 C   0  0  0  0  0  0  0  0  0  0  0  0
   12.0700   15.4250   23.0170 C   0  0  0  0  0  0  0  0  0  0  0  0
   10.7280   15.5990   23.7180 C   0  0  0  0  0  0  0  0  0  0  0  0
    9.5030   15.4020   21.5810 C   0  0  0  0  0  0  0  0  0  0  0  0
    9.6460   14.9360   22.9630 N   0  0  0  0  0  0  0  0  0  0  0  0
    8.9330   13.8630   23.3810 C   0  0  0  0  0  0  0  0  0  0  0  0
    8.0590   13.3450   22.6820 O   0  0  0  0  0  0  0  0  0  0  0  0
    9.2190   13.3540   24.7830 C   0  0  0  0  0  0  0  0  0  0  0  0
    8.6100   11.9900   25.0130 C   0  0  0  0  0  0  0  0  0  0  0  0
    7.4980   11.7960   25.8300 C   0  0  0  0  0  0  0  0  0  0  0  0
    6.9710   10.5170   25.9450 C   0  0  0  0  0  0  0  0  0  0  0  0
    7.5570    9.4780   25.2410 C   0  0  0  0  0  0  0  0  0  0  0  0
    9.2040   10.9900   24.3440 N   0  0  0  0  0  0  0  0  0  0  0  0
    8.6840    9.7560   24.4730 C   0  0  0  0  0  0  0  0  0  0  0  0
    9.4720    8.6860   23.8950 C   0  0  0  0  0  0  0  0  0  0  0  0
   10.1250    7.8650   23.4350 N   0  0  0  0  0  0  0  0  0  0  0  0
 20 19  3  0
 19 18  1  0
 18 16  2  0
 16 15  1  0
 15 14  2  0
 14 13  1  0
 13 12  1  0
 12 10  1  0
 11 10  2  0
 10  9  1  0
  9  7  1  0
  7  6  1  0
  6  5  1  0
  5  4  1  0
  4  2  1  6
  3  2  1  0
  2  1  2  0
  8  4  1  0
  9  8  1  0
 17 13  2  0
 18 17  1  0
M  END
$$$$
