A71EV2A-x4986_A_201_1_A71EV2A-x0911+A+147+1__LIG
     RDKit          3D

 26 28  0  0  0  0  0  0  0  0999 V2000
   10.2680   16.6270   19.2040 O   0  0  0  0  0  0  0  0  0  0  0  0
   10.6400   15.4730   19.4420 C   0  0  0  0  0  0  0  0  0  0  0  0
   11.0110   14.6160   18.4900 N   0  0  0  0  0  0  0  0  0  0  0  0
   10.6230   14.9180   20.8550 C   0  0  1  0  0  0  0  0  0  0  0  0
   11.7610   15.5010   21.7050 C   0  0  0  0  0  0  0  0  0  0  0  0
   11.7280   14.9220   23.1260 C   0  0  0  0  0  0  0  0  0  0  0  0
   10.3610   15.1370   23.7700 C   0  0  0  0  0  0  0  0  0  0  0  0
    9.2850   15.2400   21.5370 C   0  0  0  0  0  0  0  0  0  0  0  0
    9.2660   14.6870   22.8940 N   0  0  0  0  0  0  0  0  0  0  0  0
    8.3270   13.7260   23.2020 C   0  0  0  0  0  0  0  0  0  0  0  0
    7.5750   13.2610   22.3660 O   0  0  0  0  0  0  0  0  0  0  0  0
    8.3080   13.2980   24.4920 N   0  0  0  0  0  0  0  0  0  0  0  0
    7.5500   12.1830   24.9270 C   0  0  0  0  0  0  0  0  0  0  0  0
    7.9380   10.8900   24.5310 C   0  0  0  0  0  0  0  0  0  0  0  0
    9.3420   10.6900   23.4710 S   0  0  0  0  0  0  0  0  0  0  0  0
    9.4410    8.9050   23.2510 C   0  0  0  0  0  0  0  0  0  0  0  0
    6.4590   12.3370   25.7950 C   0  0  0  0  0  0  0  0  0  0  0  0
    5.7640   11.2230   26.2690 C   0  0  0  0  0  0  0  0  0  0  0  0
    6.1600    9.9570   25.8640 C   0  0  0  0  0  0  0  0  0  0  0  0
    7.2350    9.7890   25.0080 C   0  0  0  0  0  0  0  0  0  0  0  0
    4.6010   11.3640   27.1070 N   0  0  0  0  0  0  0  0  0  0  0  0
    3.7060   12.4110   27.0890 C   0  0  0  0  0  0  0  0  0  0  0  0
    3.6530   13.2760   26.2230 O   0  0  0  0  0  0  0  0  0  0  0  0
    2.7550   12.2370   28.2480 C   0  0  0  0  0  0  0  0  0  0  0  0
    2.9240   10.7780   28.6850 C   0  0  0  0  0  0  0  0  0  0  0  0
    4.1490   10.2280   27.9360 C   0  0  0  0  0  0  0  0  0  0  0  0
 16 15  1  0
 15 14  1  0
 14 20  2  0
 20 19  1  0
 19 18  2  0
 21 18  1  0
 21 26  1  0
 26 25  1  0
 25 24  1  0
 24 22  1  0
 22 21  1  0
 23 22  2  0
 18 17  1  0
 17 13  2  0
 14 13  1  0
 13 12  1  0
 12 10  1  0
 11 10  2  0
 10  9  1  0
  9  7  1  0
  7  6  1  0
  6  5  1  0
  5  4  1  0
  4  2  1  6
  3  2  1  0
  2  1  2  0
  8  4  1  0
  9  8  1  0
M  END
$$$$
