XX01ZVNS2B-x1715_B_301_1_XX01ZVNS2B-x4590+B+203+1__LIG
     RDKit          3D

 17 18  0  0  0  0  0  0  0  0999 V2000
   -9.5980    4.1480  -18.4940 C   0  0  0  0  0  0  0  0  0  0  0  0
   -8.3170    4.4320  -17.7670 C   0  0  0  0  0  0  0  0  0  0  0  0
   -8.2980    4.3800  -16.3560 C   0  0  0  0  0  0  0  0  0  0  0  0
   -7.1240    4.6470  -15.6970 C   0  0  0  0  0  0  0  0  0  0  0  0
   -5.9490    4.9500  -16.4440 C   0  0  0  0  0  0  0  0  0  0  0  0
   -4.7010    5.2240  -15.8330 C   0  0  0  0  0  0  0  0  0  0  0  0
   -3.6150    5.5090  -16.5950 C   0  0  0  0  0  0  0  0  0  0  0  0
   -3.7320    5.5340  -18.0000 C   0  0  0  0  0  0  0  0  0  0  0  0
   -4.9140    5.2810  -18.6540 C   0  0  0  0  0  0  0  0  0  0  0  0
   -6.0650    4.9780  -17.8630 C   0  0  0  0  0  0  0  0  0  0  0  0
   -7.2460    4.7160  -18.4990 N   0  0  0  0  0  0  0  0  0  0  0  0
   -4.9910    5.3080  -20.1560 C   0  0  0  0  0  0  0  0  0  0  0  0
   -6.9550    4.6310  -14.3430 O   0  0  0  0  0  0  0  0  0  0  0  0
   -8.0720    4.3880  -13.4900 C   0  0  0  0  0  0  0  0  0  0  0  0
   -8.0390    2.9950  -12.9160 C   0  0  0  0  0  0  0  0  0  0  0  0
   -7.6640    2.0480  -13.6190 O   0  0  0  0  0  0  0  0  0  0  0  0
   -8.4330    2.8630  -11.6560 N   0  0  0  0  0  0  0  0  0  0  0  0
  1  2  1  0
  2  3  2  0
  3  4  1  0
  4  5  2  0
  5  6  1  0
  6  7  2  0
  7  8  1  0
  8  9  2  0
  9 10  1  0
 10 11  2  0
  9 12  1  0
  4 13  1  0
 13 14  1  0
 14 15  1  0
 15 16  2  0
 15 17  1  0
  2 11  1  0
  5 10  1  0
M  END
$$$$
