A71EV2A-x1776_A_201_1_A71EV2A-x0911+A+147+1__LIG
     RDKit          3D

 15 15  0  0  0  0  0  0  0  0999 V2000
    8.2200   12.8230   27.0020 O   0  0  0  0  0  0  0  0  0  0  0  0
    7.3830   12.0380   26.5790 C   0  0  0  0  0  0  0  0  0  0  0  0
    5.9680   12.0100   27.0990 C   0  0  0  0  0  0  0  0  0  0  0  0
    7.6560   11.1260   25.6300 N   0  0  0  0  0  0  0  0  0  0  0  0
    8.8640   10.9550   24.9070 C   0  0  0  0  0  0  0  0  0  0  0  0
    8.9280    9.7890   24.1730 C   0  0  0  0  0  0  0  0  0  0  0  0
   10.0350    9.5130   23.3980 C   0  0  0  0  0  0  0  0  0  0  0  0
    9.9380   11.8450   24.8710 C   0  0  0  0  0  0  0  0  0  0  0  0
   11.0420   11.5710   24.0820 C   0  0  0  0  0  0  0  0  0  0  0  0
   11.1010   10.4070   23.3290 C   0  0  0  0  0  0  0  0  0  0  0  0
   12.2170   10.1290   22.3760 C   0  0  0  0  0  0  0  0  0  0  0  0
   12.1130    9.2350   21.5500 O   0  0  0  0  0  0  0  0  0  0  0  0
   13.4610   10.9750   22.4000 C   0  0  2  0  0  0  0  0  0  0  0  0
   14.1990   11.0830   21.0250 C   0  0  0  0  0  0  0  0  0  0  0  0
   14.5070   10.2450   23.7650 S   0  0  0  0  0  0  0  0  0  0  0  0
 13 14  1  6
 13 11  1  0
 12 11  2  0
 11 10  1  0
 10  7  2  0
  7  6  1  0
  6  5  2  0
  5  4  1  0
  4  2  1  0
  3  2  1  0
  2  1  2  0
  8  5  1  0
  9  8  2  0
 10  9  1  0
 15 13  1  0
M  END
$$$$
