A71EV2A-x3849_A_201_1_A71EV2A-x0911+A+147+1__LIG
     RDKit          3D

 20 21  0  0  0  0  0  0  0  0999 V2000
   10.1420   16.8580   19.0610 O   0  0  0  0  0  0  0  0  0  0  0  0
   10.5860   15.8210   19.5570 C   0  0  0  0  0  0  0  0  0  0  0  0
   11.0170   14.8010   18.8200 N   0  0  0  0  0  0  0  0  0  0  0  0
   10.6340   15.6410   21.0660 C   0  0  2  0  0  0  0  0  0  0  0  0
   12.0760   15.6220   21.5850 C   0  0  0  0  0  0  0  0  0  0  0  0
   12.0900   15.3660   23.0890 C   0  0  0  0  0  0  0  0  0  0  0  0
   11.3960   14.0490   23.4090 C   0  0  0  0  0  0  0  0  0  0  0  0
    9.8710   14.3660   21.4370 C   0  0  0  0  0  0  0  0  0  0  0  0
   10.0350   13.9680   22.8400 N   0  0  0  0  0  0  0  0  0  0  0  0
    9.0160   13.2960   23.4310 C   0  0  0  0  0  0  0  0  0  0  0  0
    7.9650   13.0340   22.8390 O   0  0  0  0  0  0  0  0  0  0  0  0
    9.2720   12.7720   24.8330 C   0  0  0  0  0  0  0  0  0  0  0  0
    8.2870   11.6930   25.2250 C   0  0  0  0  0  0  0  0  0  0  0  0
    8.3150   10.3870   24.7050 C   0  0  0  0  0  0  0  0  0  0  0  0
    9.2890   10.1680   23.8000 O   0  0  0  0  0  0  0  0  0  0  0  0
    9.5390    8.8190   23.3870 C   0  0  0  0  0  0  0  0  0  0  0  0
    7.2920   11.9520   26.1640 C   0  0  0  0  0  0  0  0  0  0  0  0
    6.4130   10.9560   26.5420 C   0  0  0  0  0  0  0  0  0  0  0  0
    6.5340    9.7200   25.9580 C   0  0  0  0  0  0  0  0  0  0  0  0
    7.4690    9.4220   25.0450 N   0  0  0  0  0  0  0  0  0  0  0  0
 16 15  1  0
 15 14  1  0
 14 20  2  0
 20 19  1  0
 19 18  2  0
 18 17  1  0
 17 13  2  0
 14 13  1  0
 13 12  1  0
 12 10  1  0
 11 10  2  0
 10  9  1  0
  9  7  1  0
  7  6  1  0
  6  5  1  0
  5  4  1  0
  4  2  1  6
  3  2  1  0
  2  1  2  0
  8  4  1  0
  9  8  1  0
M  END
$$$$
