A71EV2A-x4644_C_201_1_A71EV2A-x0911+A+147+1__LIG
     RDKit          3D

 21 22  0  0  0  0  0  0  0  0999 V2000
    9.6390   10.5350   24.1150 Br  0  0  0  0  0  0  0  0  0  0  0  0
    8.1580   11.1070   25.1480 C   0  0  0  0  0  0  0  0  0  0  0  0
    7.2630   10.1930   25.6620 C   0  0  0  0  0  0  0  0  0  0  0  0
    7.4170    8.8830   25.4000 F   0  0  0  0  0  0  0  0  0  0  0  0
    6.2140   10.6020   26.4440 C   0  0  0  0  0  0  0  0  0  0  0  0
    5.3860    9.6640   26.9590 F   0  0  0  0  0  0  0  0  0  0  0  0
    6.0150   11.9300   26.7210 C   0  0  0  0  0  0  0  0  0  0  0  0
    6.9080   12.8540   26.2060 C   0  0  0  0  0  0  0  0  0  0  0  0
    7.9960   12.4690   25.4170 C   0  0  0  0  0  0  0  0  0  0  0  0
    8.9730   13.5080   24.9200 C   0  0  0  0  0  0  0  0  0  0  0  0
    8.7070   13.9100   23.4780 C   0  0  0  0  0  0  0  0  0  0  0  0
    7.8520   13.3450   22.8010 O   0  0  0  0  0  0  0  0  0  0  0  0
    9.4640   14.9200   22.9900 N   0  0  0  0  0  0  0  0  0  0  0  0
   10.4940   15.6470   23.7490 C   0  0  0  0  0  0  0  0  0  0  0  0
   11.8650   15.5000   23.0870 C   0  0  0  0  0  0  0  0  0  0  0  0
   11.7920   15.9250   21.6190 C   0  0  0  0  0  0  0  0  0  0  0  0
    9.3560   15.3250   21.5850 C   0  0  0  0  0  0  0  0  0  0  0  0
   10.6990   15.1420   20.8660 C   0  0  1  0  0  0  0  0  0  0  0  0
   10.5710   15.6350   19.4350 C   0  0  0  0  0  0  0  0  0  0  0  0
   10.1670   16.7760   19.1920 O   0  0  0  0  0  0  0  0  0  0  0  0
   10.8800   14.7580   18.4900 N   0  0  0  0  0  0  0  0  0  0  0  0
 21 19  1  0
 20 19  2  0
 18 19  1  6
 18 16  1  0
 16 15  1  0
 15 14  1  0
 14 13  1  0
 13 11  1  0
 12 11  2  0
 11 10  1  0
 10  9  1  0
  9  8  2  0
  8  7  1  0
  7  5  2  0
  6  5  1  0
  5  3  1  0
  4  3  1  0
  3  2  2  0
  9  2  1  0
  2  1  1  0
 17 13  1  0
 18 17  1  0
M  END
$$$$
