XX01ZVNS2B-x0773_B_301_1_XX01ZVNS2B-x4590+B+203+1__LIG
     RDKit          3D

 14 15  0  0  0  0  0  0  0  0999 V2000
   -5.4120    5.2740  -14.5790 O   0  0  0  0  0  0  0  0  0  0  0  0
   -4.8410    6.1150  -15.5940 S   0  0  0  0  0  0  0  0  0  0  0  0
   -5.0520    7.5320  -15.4910 O   0  0  0  0  0  0  0  0  0  0  0  0
   -3.1120    5.8180  -15.6410 C   0  0  0  0  0  0  0  0  0  0  0  0
   -5.4490    5.5750  -17.1750 C   0  0  0  0  0  0  0  0  0  0  0  0
   -6.7820    5.1140  -17.3820 C   0  0  0  0  0  0  0  0  0  0  0  0
   -7.6720    5.1320  -16.3470 N   0  0  0  0  0  0  0  0  0  0  0  0
   -8.8840    4.6610  -16.5780 C   0  0  0  0  0  0  0  0  0  0  0  0
   -9.3080    4.1620  -17.7940 C   0  0  0  0  0  0  0  0  0  0  0  0
   -8.4360    4.1460  -18.8380 C   0  0  0  0  0  0  0  0  0  0  0  0
   -7.1210    4.6310  -18.6680 C   0  0  0  0  0  0  0  0  0  0  0  0
   -6.1430    4.6390  -19.6900 C   0  0  0  0  0  0  0  0  0  0  0  0
   -4.8890    5.1120  -19.4500 C   0  0  0  0  0  0  0  0  0  0  0  0
   -4.5380    5.5810  -18.1960 C   0  0  0  0  0  0  0  0  0  0  0  0
  4  2  1  0
  3  2  2  0
  2  1  2  0
  5  2  1  0
  5 14  2  0
 14 13  1  0
 13 12  2  0
 12 11  1  0
 11 10  2  0
 10  9  1  0
  9  8  2  0
  8  7  1  0
  7  6  2  0
  6  5  1  0
 11  6  1  0
M  END
$$$$
