XX01ZVNS2B-x1756_B_301_1_XX01ZVNS2B-x4590+B+203+1__LIG
     RDKit          3D

 16 17  0  0  0  0  0  0  0  0999 V2000
   -7.8370    5.4720  -11.3710 N   0  0  0  0  0  0  0  0  0  0  0  0
   -7.4620    5.6740  -12.7960 C   0  0  1  0  0  0  0  0  0  0  0  0
   -8.6310    5.2660  -13.7230 C   0  0  0  0  0  0  0  0  0  0  0  0
   -8.2240    5.0210  -15.1490 C   0  0  0  0  0  0  0  0  0  0  0  0
   -7.0100    5.3970  -15.5200 N   0  0  0  0  0  0  0  0  0  0  0  0
   -6.6200    5.1920  -16.8210 C   0  0  0  0  0  0  0  0  0  0  0  0
   -7.4830    4.5910  -17.7700 C   0  0  0  0  0  0  0  0  0  0  0  0
   -7.0220    4.4030  -19.0940 C   0  0  0  0  0  0  0  0  0  0  0  0
   -5.7670    4.7980  -19.4460 C   0  0  0  0  0  0  0  0  0  0  0  0
   -4.9130    5.3940  -18.5020 C   0  0  0  0  0  0  0  0  0  0  0  0
   -5.3240    5.5870  -17.2160 C   0  0  0  0  0  0  0  0  0  0  0  0
   -8.7720    4.1980  -17.3480 C   0  0  0  0  0  0  0  0  0  0  0  0
   -9.1350    4.4110  -16.0530 C   0  0  0  0  0  0  0  0  0  0  0  0
   -7.0430    7.1360  -12.9730 C   0  0  0  0  0  0  0  0  0  0  0  0
   -7.5860    7.9700  -12.2200 O   0  0  0  0  0  0  0  0  0  0  0  0
   -6.1770    7.3860  -13.8330 O   0  0  0  0  0  0  0  0  0  0  0  0
  2  1  1  1
  2  3  1  0
  3  4  1  0
  4  5  2  0
  5  6  1  0
  6  7  2  0
  7  8  1  0
  8  9  2  0
  9 10  1  0
 10 11  2  0
  7 12  1  0
 12 13  2  0
  2 14  1  0
 14 15  1  0
 14 16  2  0
  4 13  1  0
  6 11  1  0
M  CHG  2   1   1  15  -1
M  END
$$$$
