A71EV2A-x4885_A_201_1_A71EV2A-x0911+A+147+1__LIG
     RDKit          3D

 21 22  0  0  0  0  0  0  0  0999 V2000
   10.2860   16.6750   19.1600 O   0  0  0  0  0  0  0  0  0  0  0  0
   10.5950   15.5230   19.4620 C   0  0  0  0  0  0  0  0  0  0  0  0
   10.9990   14.6370   18.5590 N   0  0  0  0  0  0  0  0  0  0  0  0
   10.5070   15.0320   20.8970 C   0  0  1  0  0  0  0  0  0  0  0  0
   11.4510   15.7990   21.8410 C   0  0  0  0  0  0  0  0  0  0  0  0
   11.2430   15.4060   23.3190 C   0  0  2  0  0  0  0  0  0  0  0  0
   11.7390   14.0050   23.6200 C   0  0  0  0  0  0  0  0  0  0  0  0
    9.7750   15.5340   23.6830 C   0  0  0  0  0  0  0  0  0  0  0  0
    9.0530   15.1880   21.3590 C   0  0  0  0  0  0  0  0  0  0  0  0
    8.9280   14.7760   22.7600 N   0  0  0  0  0  0  0  0  0  0  0  0
    8.0670   13.8040   23.1400 C   0  0  0  0  0  0  0  0  0  0  0  0
    7.2640   13.3180   22.3550 O   0  0  0  0  0  0  0  0  0  0  0  0
    8.1350   13.3920   24.6040 C   0  0  0  0  0  0  0  0  0  0  0  0
    7.3330   12.1530   24.9320 C   0  0  0  0  0  0  0  0  0  0  0  0
    7.7310   10.8540   24.5810 C   0  0  0  0  0  0  0  0  0  0  0  0
    9.1770   10.7070   23.5690 S   0  0  0  0  0  0  0  0  0  0  0  0
    9.3240    8.9320   23.2860 C   0  0  0  0  0  0  0  0  0  0  0  0
    6.1840   12.3080   25.7070 C   0  0  0  0  0  0  0  0  0  0  0  0
    5.4630   11.2150   26.1400 C   0  0  0  0  0  0  0  0  0  0  0  0
    5.8540    9.9480   25.7890 C   0  0  0  0  0  0  0  0  0  0  0  0
    6.9850    9.7550   25.0060 C   0  0  0  0  0  0  0  0  0  0  0  0
 17 16  1  0
 16 15  1  0
 15 21  2  0
 21 20  1  0
 20 19  2  0
 19 18  1  0
 18 14  2  0
 15 14  1  0
 14 13  1  0
 13 11  1  0
 12 11  2  0
 11 10  1  0
 10  8  1  0
  8  6  1  0
  6  7  1  6
  6  5  1  0
  5  4  1  0
  4  2  1  6
  3  2  1  0
  2  1  2  0
  9  4  1  0
 10  9  1  0
M  END
$$$$
