XX01ZVNS2B-x4138_B_203_6_XX01ZVNS2B-x4590+B+203+1__LIG
     RDKit          3D

 28 31  0  0  0  0  0  0  0  0999 V2000
  -10.3560    3.9890  -18.0960 Cl  0  0  0  0  0  0  0  0  0  0  0  0
   -8.9110    4.3950  -17.2160 C   0  0  0  0  0  0  0  0  0  0  0  0
   -8.8900    4.2570  -15.8350 C   0  0  0  0  0  0  0  0  0  0  0  0
   -7.8120    4.8310  -17.9190 C   0  0  0  0  0  0  0  0  0  0  0  0
   -6.6430    5.1460  -17.2400 C   0  0  0  0  0  0  0  0  0  0  0  0
   -5.4170    5.5830  -18.0150 C   0  0  0  0  0  0  0  0  0  0  0  0
   -4.0530    5.0470  -17.6820 C   0  0  0  0  0  0  0  0  0  0  0  0
   -4.3710    6.4650  -17.3920 C   0  0  0  0  0  0  0  0  0  0  0  0
   -6.6220    5.0120  -15.8550 C   0  0  0  0  0  0  0  0  0  0  0  0
   -7.7240    4.5590  -15.1350 C   0  0  0  0  0  0  0  0  0  0  0  0
   -7.6000    4.3150  -13.6350 C   0  0  2  0  0  0  0  0  0  0  0  0
   -6.7040    3.0930  -13.3840 C   0  0  0  0  0  0  0  0  0  0  0  0
   -5.5280    3.3800  -12.8310 N   0  0  0  0  0  0  0  0  0  0  0  0
   -4.6720    2.3660  -12.2400 C   0  0  0  0  0  0  0  0  0  0  0  0
   -3.2530    2.4590  -12.7430 C   0  0  0  0  0  0  0  0  0  0  0  0
   -3.1190    1.9130  -14.1310 C   0  0  0  0  0  0  0  0  0  0  0  0
   -2.8460    2.9340  -14.9990 F   0  0  0  0  0  0  0  0  0  0  0  0
   -7.0540    1.9510  -13.6790 O   0  0  0  0  0  0  0  0  0  0  0  0
   -8.7730    4.2840  -12.7830 N   0  0  0  0  0  0  0  0  0  0  0  0
   -8.6620    4.2630  -11.3760 C   0  0  0  0  0  0  0  0  0  0  0  0
   -8.9410    3.0890  -10.6750 C   0  0  0  0  0  0  0  0  0  0  0  0
   -8.9230    3.0800   -9.2810 C   0  0  0  0  0  0  0  0  0  0  0  0
   -9.1880    1.9460   -8.3350 C   0  0  0  0  0  0  0  0  0  0  0  0
   -8.8140    2.5300   -7.0380 N   0  0  0  0  0  0  0  0  0  0  0  0
   -8.7170    3.9990   -7.1030 C   0  0  0  0  0  0  0  0  0  0  0  0
   -8.6310    4.2420   -8.5810 C   0  0  0  0  0  0  0  0  0  0  0  0
   -8.3270    5.4070   -9.2810 C   0  0  0  0  0  0  0  0  0  0  0  0
   -8.3300    5.4170  -10.6680 C   0  0  0  0  0  0  0  0  0  0  0  0
 18 12  2  0
 13 12  1  0
 14 13  1  0
 15 14  1  0
 16 15  1  0
 17 16  1  0
 12 11  1  0
 11 19  1  6
 20 19  1  0
 20 28  2  0
 28 27  1  0
 27 26  2  0
 26 22  1  0
 22 21  2  0
 21 20  1  0
 23 22  1  0
 24 23  1  0
 25 24  1  0
 26 25  1  0
 11 10  1  0
 10  3  1  0
  3  2  2  0
  2  1  1  0
  4  2  1  0
  5  4  2  0
  6  5  1  0
  6  8  1  0
  8  7  1  0
  7  6  1  0
  9  5  1  0
 10  9  2  0
M  END
$$$$
