A71EV2A-x4739_A_201_1_A71EV2A-x0911+A+147+1__LIG
     RDKit          3D

 21 23  0  0  0  0  0  0  0  0999 V2000
   10.5170   16.7780   19.0560 O   0  0  0  0  0  0  0  0  0  0  0  0
   10.9130   15.6380   19.3310 C   0  0  0  0  0  0  0  0  0  0  0  0
   11.2780   14.7590   18.4190 N   0  0  0  0  0  0  0  0  0  0  0  0
   10.9800   15.1520   20.7590 C   0  0  1  0  0  0  0  0  0  0  0  0
   11.0290   16.1020   21.9370 C   0  0  2  0  0  0  0  0  0  0  0  0
   11.8180   15.6400   23.1640 C   0  0  0  0  0  0  0  0  0  0  0  0
   11.3800   14.2880   23.7390 C   0  0  0  0  0  0  0  0  0  0  0  0
    9.7520   15.4370   21.5980 C   0  0  2  0  0  0  0  0  0  0  0  0
    9.3370   14.1830   22.3600 C   0  0  0  0  0  0  0  0  0  0  0  0
    9.9160   14.1470   23.7100 N   0  0  0  0  0  0  0  0  0  0  0  0
    9.1660   13.9590   24.8210 C   0  0  0  0  0  0  0  0  0  0  0  0
    9.6390   14.0250   25.9470 O   0  0  0  0  0  0  0  0  0  0  0  0
    7.7030   13.6170   24.6110 C   0  0  0  0  0  0  0  0  0  0  0  0
    7.2960   12.3750   25.3680 C   0  0  0  0  0  0  0  0  0  0  0  0
    7.7080   11.0810   25.0120 C   0  0  0  0  0  0  0  0  0  0  0  0
    8.9920   10.8820   23.8080 S   0  0  0  0  0  0  0  0  0  0  0  0
    9.1780    9.1060   23.6390 C   0  0  0  0  0  0  0  0  0  0  0  0
    6.3550   12.5140   26.3860 C   0  0  0  0  0  0  0  0  0  0  0  0
    5.7960   11.4090   26.9980 C   0  0  0  0  0  0  0  0  0  0  0  0
    6.1710   10.1460   26.6110 C   0  0  0  0  0  0  0  0  0  0  0  0
    7.1260    9.9730   25.6230 C   0  0  0  0  0  0  0  0  0  0  0  0
 17 16  1  0
 16 15  1  0
 15 21  2  0
 21 20  1  0
 20 19  2  0
 19 18  1  0
 18 14  2  0
 15 14  1  0
 14 13  1  0
 13 11  1  0
 12 11  2  0
 11 10  1  0
 10  7  1  0
  7  6  1  0
  5  6  1  1
  5  8  1  0
  8  9  1  1
 10  9  1  0
  8  4  1  0
  5  4  1  0
  4  2  1  6
  3  2  1  0
  2  1  2  0
M  END
$$$$
