A71EV2A-x4390_A_201_1_A71EV2A-x0911+A+147+1__LIG
     RDKit          3D

 20 21  0  0  0  0  0  0  0  0999 V2000
   11.1010   15.0850   24.8790 O   0  0  0  0  0  0  0  0  0  0  0  0
   10.9840   15.1610   23.6580 C   0  0  0  0  0  0  0  0  0  0  0  0
   12.1490   15.5280   22.7500 C   0  0  0  0  0  0  0  0  0  0  0  0
   12.0110   14.8290   21.3790 C   0  0  0  0  0  0  0  0  0  0  0  0
   10.7630   15.4570   20.8290 C   0  0  1  0  0  0  0  0  0  0  0  0
   10.6610   15.5770   19.3210 C   0  0  0  0  0  0  0  0  0  0  0  0
   10.2280   16.6130   18.8390 O   0  0  0  0  0  0  0  0  0  0  0  0
   11.0940   14.5660   18.5540 N   0  0  0  0  0  0  0  0  0  0  0  0
    9.5440   14.9410   21.5880 C   0  0  0  0  0  0  0  0  0  0  0  0
    9.7970   14.9420   23.0330 N   0  0  0  0  0  0  0  0  0  0  0  0
    8.6950   14.3620   23.7980 C   0  0  0  0  0  0  0  0  0  0  0  0
    8.8840   12.8560   23.7570 C   0  0  0  0  0  0  0  0  0  0  0  0
    7.8610   12.0180   24.4700 C   0  0  0  0  0  0  0  0  0  0  0  0
    7.8940   10.6350   24.3350 C   0  0  0  0  0  0  0  0  0  0  0  0
    8.8010   10.1810   23.4230 O   0  0  0  0  0  0  0  0  0  0  0  0
    8.9750    8.7630   23.2910 C   0  0  0  0  0  0  0  0  0  0  0  0
    6.9300   12.5790   25.3380 C   0  0  0  0  0  0  0  0  0  0  0  0
    6.0880   11.7690   26.0840 C   0  0  0  0  0  0  0  0  0  0  0  0
    6.1570   10.3970   25.9630 C   0  0  0  0  0  0  0  0  0  0  0  0
    7.0500    9.8210   25.0710 C   0  0  0  0  0  0  0  0  0  0  0  0
 16 15  1  0
 15 14  1  0
 14 20  2  0
 20 19  1  0
 19 18  2  0
 18 17  1  0
 17 13  2  0
 14 13  1  0
 13 12  1  0
 12 11  1  0
 11 10  1  0
 10  9  1  0
  9  5  1  0
  5  6  1  6
  8  6  1  0
  7  6  2  0
  5  4  1  0
  4  3  1  0
  3  2  1  0
 10  2  1  0
  2  1  2  0
M  END
$$$$
