A71EV2A-x3264_A_201_1_A71EV2A-x0911+A+147+1__LIG
     RDKit          3D

 20 22  0  0  0  0  0  0  0  0999 V2000
   10.2620   13.9780   24.6060 O   0  0  0  0  0  0  0  0  0  0  0  0
   10.4080   13.1210   23.7360 C   0  0  0  0  0  0  0  0  0  0  0  0
    9.6300   11.8270   23.7970 C   0  0  0  0  0  0  0  0  0  0  0  0
   10.0220   10.7910   23.0670 N   0  0  0  0  0  0  0  0  0  0  0  0
    8.5260   11.4690   24.6420 C   0  0  0  0  0  0  0  0  0  0  0  0
    8.3090   10.1050   24.3650 C   0  0  0  0  0  0  0  0  0  0  0  0
    7.3950    9.3190   24.9540 N   0  0  0  0  0  0  0  0  0  0  0  0
    6.6270    9.9250   25.8840 C   0  0  0  0  0  0  0  0  0  0  0  0
    6.7510   11.2640   26.2450 C   0  0  0  0  0  0  0  0  0  0  0  0
    7.7170   12.0470   25.6210 C   0  0  0  0  0  0  0  0  0  0  0  0
    9.2250    9.7330   23.4240 N   0  0  0  0  0  0  0  0  0  0  0  0
    9.5130    8.3950   22.9280 C   0  0  0  0  0  0  0  0  0  0  0  0
   11.2550   13.2370   22.7070 N   0  0  0  0  0  0  0  0  0  0  0  0
   12.1770   14.3590   22.5750 C   0  0  0  0  0  0  0  0  0  0  0  0
   12.4690   14.6990   21.1090 C   0  0  0  0  0  0  0  0  0  0  0  0
   11.3290   15.3700   20.4030 C   0  0  0  0  0  0  0  0  0  0  0  0
   10.6450   16.4380   20.9720 N   0  0  0  0  0  0  0  0  0  0  0  0
    9.7570   16.7430   20.0940 C   0  0  0  0  0  0  0  0  0  0  0  0
    9.7730   15.9960   18.9710 O   0  0  0  0  0  0  0  0  0  0  0  0
   10.7920   15.1110   19.2000 C   0  0  0  0  0  0  0  0  0  0  0  0
 12 11  1  0
 11  4  1  0
  4  3  2  0
  3  2  1  0
  2  1  2  0
 13  2  1  0
 14 13  1  0
 15 14  1  0
 16 15  1  0
 16 20  2  0
 20 19  1  0
 19 18  1  0
 18 17  2  0
 17 16  1  0
  5  3  1  0
  5 10  2  0
 10  9  1  0
  9  8  2  0
  8  7  1  0
  7  6  2  0
  6  5  1  0
 11  6  1  0
M  END
$$$$
