A71EV2A-x2454_E_246_1_A71EV2A-x0911+A+147+1__LIG
     RDKit          3D

 14 14  0  0  0  0  0  0  0  0999 V2000
    5.5060   13.7100   26.6430 O   0  0  0  0  0  0  0  0  0  0  0  0
    6.3000   13.3380   25.7680 C   0  0  0  0  0  0  0  0  0  0  0  0
    6.6130   14.0950   24.7150 N   0  0  0  0  0  0  0  0  0  0  0  0
    6.8710   12.0950   25.8040 N   0  0  0  0  0  0  0  0  0  0  0  0
    7.7870   11.4920   24.9080 C   0  0  0  0  0  0  0  0  0  0  0  0
    7.5990   10.1530   24.5900 C   0  0  0  0  0  0  0  0  0  0  0  0
    8.4700    9.5230   23.7170 C   0  0  0  0  0  0  0  0  0  0  0  0
    9.5290   10.2150   23.1530 C   0  0  0  0  0  0  0  0  0  0  0  0
    8.8570   12.1890   24.3530 C   0  0  0  0  0  0  0  0  0  0  0  0
    9.7230   11.5540   23.4670 C   0  0  0  0  0  0  0  0  0  0  0  0
   10.7920   12.2820   22.8950 N   0  0  0  0  0  0  0  0  0  0  0  0
   11.5160   13.2770   23.4650 C   0  0  0  0  0  0  0  0  0  0  0  0
   11.5180   13.4890   24.6750 O   0  0  0  0  0  0  0  0  0  0  0  0
   12.3030   14.1220   22.5090 C   0  0  0  0  0  0  0  0  0  0  0  0
 14 12  1  0
 13 12  2  0
 12 11  1  0
 11 10  1  0
 10  8  1  0
  8  7  2  0
  7  6  1  0
  6  5  2  0
  5  4  1  0
  4  2  1  0
  3  2  1  0
  2  1  2  0
  9  5  1  0
 10  9  2  0
M  END
$$$$
