XX01ZVNS2B-x1753_B_301_1_XX01ZVNS2B-x4590+B+203+1__LIG
     RDKit          3D

 21 23  0  0  0  0  0  0  0  0999 V2000
   -3.1580    5.4080  -15.3510 C   0  0  0  0  0  0  0  0  0  0  0  0
   -4.4530    5.1870  -16.0720 C   0  0  0  0  0  0  0  0  0  0  0  0
   -5.5030    4.8260  -15.3490 N   0  0  0  0  0  0  0  0  0  0  0  0
   -6.7020    4.6280  -15.9710 C   0  0  0  0  0  0  0  0  0  0  0  0
   -6.8510    4.8030  -17.3740 C   0  0  0  0  0  0  0  0  0  0  0  0
   -8.1210    4.5770  -17.9640 C   0  0  0  0  0  0  0  0  0  0  0  0
   -9.1840    4.1960  -17.2030 C   0  0  0  0  0  0  0  0  0  0  0  0
   -9.0500    4.0240  -15.8170 C   0  0  0  0  0  0  0  0  0  0  0  0
   -7.8440    4.2420  -15.1940 C   0  0  0  0  0  0  0  0  0  0  0  0
   -7.6430    4.0550  -13.8190 N   0  0  0  0  0  0  0  0  0  0  0  0
   -7.5360    2.8470  -13.2130 C   0  0  0  0  0  0  0  0  0  0  0  0
   -7.1110    1.8470  -13.7880 O   0  0  0  0  0  0  0  0  0  0  0  0
   -8.0460    2.7490  -11.7980 C   0  0  2  0  0  0  0  0  0  0  0  0
   -8.4390    4.0080  -11.0030 C   0  0  0  0  0  0  0  0  0  0  0  0
   -7.9080    3.2890   -9.7580 C   0  0  1  0  0  0  0  0  0  0  0  0
   -8.8360    2.5300   -8.9440 N   0  0  0  0  0  0  0  0  0  0  0  0
   -6.9870    2.5090  -10.7020 C   0  0  0  0  0  0  0  0  0  0  0  0
   -5.7030    5.1990  -18.1270 C   0  0  0  0  0  0  0  0  0  0  0  0
   -5.8100    5.3980  -19.6200 C   0  0  0  0  0  0  0  0  0  0  0  0
   -4.5650    5.6750  -20.2550 O   0  0  0  0  0  0  0  0  0  0  0  0
   -4.5230    5.3870  -17.4650 C   0  0  0  0  0  0  0  0  0  0  0  0
  1  2  1  0
  2  3  2  0
  3  4  1  0
  4  5  2  0
  5  6  1  0
  6  7  2  0
  7  8  1  0
  8  9  2  0
  9 10  1  0
 10 11  1  0
 11 12  2  0
 13 11  1  6
 13 14  1  0
 14 15  1  0
 15 16  1  6
 15 17  1  0
  5 18  1  0
 18 19  1  0
 19 20  1  0
 18 21  2  0
  2 21  1  0
  4  9  1  0
 13 17  1  0
M  END
$$$$
