A71EV2A-x3634_A_201_1_A71EV2A-x0911+A+147+1__LIG
     RDKit          3D

 20 21  0  0  0  0  0  0  0  0999 V2000
   10.0460   16.7480   18.6010 O   0  0  0  0  0  0  0  0  0  0  0  0
   10.3750   15.6830   19.1290 C   0  0  0  0  0  0  0  0  0  0  0  0
   10.9340   14.6720   18.4600 N   0  0  0  0  0  0  0  0  0  0  0  0
   10.1450   15.4780   20.6020 C   0  0  1  0  0  0  0  0  0  0  0  0
    8.9080   14.6370   20.8880 C   0  0  0  0  0  0  0  0  0  0  0  0
   11.2590   14.8830   21.4930 C   0  0  1  0  0  0  0  0  0  0  0  0
   12.3770   15.8760   21.8060 C   0  0  0  0  0  0  0  0  0  0  0  0
   10.4990   14.4270   22.7340 C   0  0  0  0  0  0  0  0  0  0  0  0
    9.1530   14.1280   22.2340 N   0  0  0  0  0  0  0  0  0  0  0  0
    8.1760   13.5200   22.9210 C   0  0  0  0  0  0  0  0  0  0  0  0
    7.0800   13.3070   22.4370 O   0  0  0  0  0  0  0  0  0  0  0  0
    8.5080   13.1650   24.3570 C   0  0  0  0  0  0  0  0  0  0  0  0
    7.5790   12.1140   24.9160 C   0  0  0  0  0  0  0  0  0  0  0  0
    7.7700   10.7790   24.5790 C   0  0  0  0  0  0  0  0  0  0  0  0
    8.6730   10.5750   23.5690 O   0  0  0  0  0  0  0  0  0  0  0  0
    9.5890    9.4850   23.6780 C   0  0  0  0  0  0  0  0  0  0  0  0
    6.5840   12.4340   25.8370 C   0  0  0  0  0  0  0  0  0  0  0  0
    5.8360   11.4410   26.4470 C   0  0  0  0  0  0  0  0  0  0  0  0
    6.0580   10.1240   26.1300 C   0  0  0  0  0  0  0  0  0  0  0  0
    7.0170    9.7800   25.1840 C   0  0  0  0  0  0  0  0  0  0  0  0
 16 15  1  0
 15 14  1  0
 14 20  2  0
 20 19  1  0
 19 18  2  0
 18 17  1  0
 17 13  2  0
 14 13  1  0
 13 12  1  0
 12 10  1  0
 11 10  2  0
 10  9  1  0
  9  5  1  0
  5  4  1  0
  4  2  1  6
  3  2  1  0
  2  1  2  0
  6  4  1  0
  6  7  1  1
  8  6  1  0
  9  8  1  0
M  END
$$$$
