XX01ZVNS2B-x2217_B_301_1_XX01ZVNS2B-x4590+B+203+1__LIG
     RDKit          3D

 24 26  0  0  0  0  0  0  0  0999 V2000
   -2.2630    6.7990  -19.9820 C   0  0  0  0  0  0  0  0  0  0  0  0
   -2.8550    5.4740  -20.4300 C   0  0  0  0  0  0  0  0  0  0  0  0
   -2.2510    4.2940  -19.6910 C   0  0  0  0  0  0  0  0  0  0  0  0
   -4.3250    5.4870  -20.3360 N   0  0  0  0  0  0  0  0  0  0  0  0
   -5.1030    5.2110  -19.2660 C   0  0  0  0  0  0  0  0  0  0  0  0
   -6.3660    4.8500  -19.3940 N   0  0  0  0  0  0  0  0  0  0  0  0
   -6.8430    4.7980  -18.0820 C   0  0  0  0  0  0  0  0  0  0  0  0
   -8.0970    4.4340  -17.5930 C   0  0  0  0  0  0  0  0  0  0  0  0
   -8.2830    4.4260  -16.2300 C   0  0  0  0  0  0  0  0  0  0  0  0
   -7.2830    4.8530  -15.3430 C   0  0  0  0  0  0  0  0  0  0  0  0
   -7.4340    4.9680  -13.8560 C   0  0  0  0  0  0  0  0  0  0  0  0
   -6.7310    5.7460  -13.2320 O   0  0  0  0  0  0  0  0  0  0  0  0
   -8.3030    4.1240  -13.2300 N   0  0  0  0  0  0  0  0  0  0  0  0
   -8.4400    4.1130  -11.8290 C   0  0  0  0  0  0  0  0  0  0  0  0
   -8.2440    5.2070  -11.0230 C   0  0  0  0  0  0  0  0  0  0  0  0
   -8.4030    4.8290   -9.7390 N   0  0  0  0  0  0  0  0  0  0  0  0
   -8.6670    3.4860   -9.6960 C   0  0  0  0  0  0  0  0  0  0  0  0
   -8.8830    2.8780   -8.3850 C   0  0  0  0  0  0  0  0  0  0  0  0
   -9.0830    1.5690   -8.3500 N   0  0  0  0  0  0  0  0  0  0  0  0
   -8.8870    3.5810   -7.3670 O   0  0  0  0  0  0  0  0  0  0  0  0
   -8.6930    3.0150  -10.9900 C   0  0  0  0  0  0  0  0  0  0  0  0
   -6.0460    5.2290  -15.8290 C   0  0  0  0  0  0  0  0  0  0  0  0
   -5.8380    5.1940  -17.1950 C   0  0  0  0  0  0  0  0  0  0  0  0
   -4.7440    5.4910  -17.9850 N   0  0  0  0  0  0  0  0  0  0  0  0
  1  2  1  0
  2  3  1  0
  2  4  1  0
  4  5  1  0
  5  6  2  0
  6  7  1  0
  7  8  2  0
  8  9  1  0
  9 10  2  0
 10 11  1  0
 11 12  2  0
 11 13  1  0
 13 14  1  0
 14 15  2  0
 15 16  1  0
 16 17  1  0
 17 18  1  0
 18 19  1  0
 18 20  2  0
 17 21  2  0
 10 22  1  0
 22 23  2  0
 23 24  1  0
  5 24  1  0
  7 23  1  0
 14 21  1  0
M  END
$$$$
