XX01ZVNS2B-x3522_B_203_1_XX01ZVNS2B-x4590+B+203+1__LIG
     RDKit          3D

 21 24  0  0  0  0  0  0  0  0999 V2000
   -6.6000    5.7260  -12.5990 O   0  0  0  0  0  0  0  0  0  0  0  0
   -7.3950    4.9560  -13.1280 C   0  0  0  0  0  0  0  0  0  0  0  0
   -8.2350    4.1430  -12.4460 N   0  0  0  0  0  0  0  0  0  0  0  0
   -8.4270    4.0430  -11.0530 C   0  0  0  0  0  0  0  0  0  0  0  0
   -8.2130    5.1430  -10.2270 C   0  0  0  0  0  0  0  0  0  0  0  0
   -8.3460    5.0120   -8.8570 C   0  0  0  0  0  0  0  0  0  0  0  0
   -8.6730    3.7690   -8.3290 C   0  0  0  0  0  0  0  0  0  0  0  0
   -8.8810    2.6730   -9.1530 C   0  0  0  0  0  0  0  0  0  0  0  0
   -8.7330    2.7840  -10.5260 C   0  0  0  0  0  0  0  0  0  0  0  0
   -9.2160    1.4770   -8.3110 C   0  0  0  0  0  0  0  0  0  0  0  0
   -8.7090    1.9040   -6.9980 N   0  0  0  0  0  0  0  0  0  0  0  0
   -8.9080    3.3610   -6.9050 C   0  0  0  0  0  0  0  0  0  0  0  0
   -7.4070    4.7800  -14.6090 C   0  0  0  0  0  0  0  0  0  0  0  0
   -6.2730    5.0460  -15.3650 C   0  0  0  0  0  0  0  0  0  0  0  0
   -6.2860    4.9080  -16.7470 C   0  0  0  0  0  0  0  0  0  0  0  0
   -7.4740    4.4990  -17.3430 C   0  0  0  0  0  0  0  0  0  0  0  0
   -7.7890    4.2350  -19.0070 S   0  0  0  0  0  0  0  0  0  0  0  0
   -9.3910    3.8460  -18.7480 N   0  0  0  0  0  0  0  0  0  0  0  0
   -9.7400    3.8610  -17.4810 C   0  0  0  0  0  0  0  0  0  0  0  0
   -8.6340    4.2450  -16.5930 C   0  0  0  0  0  0  0  0  0  0  0  0
   -8.5970    4.3950  -15.2120 C   0  0  0  0  0  0  0  0  0  0  0  0
  1  2  2  0
  2  3  1  0
  3  4  1  0
  4  5  2  0
  5  6  1  0
  6  7  2  0
  7  8  1  0
  8  9  2  0
  8 10  1  0
 10 11  1  0
 11 12  1  0
  2 13  1  0
 13 14  2  0
 14 15  1  0
 15 16  2  0
 16 17  1  0
 17 18  1  0
 18 19  2  0
 19 20  1  0
 20 21  2  0
  4  9  1  0
 13 21  1  0
  7 12  1  0
 16 20  1  0
M  END
$$$$
