A71EV2A-x4873_C_201_1_A71EV2A-x0911+A+147+1__LIG
     RDKit          3D

 21 22  0  0  0  0  0  0  0  0999 V2000
    7.1170   13.5430   26.2600 Cl  0  0  0  0  0  0  0  0  0  0  0  0
    7.6260   11.9890   25.7360 C   0  0  0  0  0  0  0  0  0  0  0  0
    6.9600   10.8400   26.1830 C   0  0  0  0  0  0  0  0  0  0  0  0
    5.9360   11.0590   27.0610 O   0  0  0  0  0  0  0  0  0  0  0  0
    5.0340    9.9770   27.3200 C   0  0  0  0  0  0  0  0  0  0  0  0
    8.7020   11.8800   24.8550 C   0  0  0  0  0  0  0  0  0  0  0  0
    9.0850   10.6210   24.4000 C   0  0  0  0  0  0  0  0  0  0  0  0
    8.4120    9.4900   24.8370 C   0  0  0  0  0  0  0  0  0  0  0  0
    7.3580    9.5950   25.7280 C   0  0  0  0  0  0  0  0  0  0  0  0
    9.3540   13.0650   24.4320 N   0  0  0  0  0  0  0  0  0  0  0  0
    8.9580   13.6950   23.2850 C   0  0  0  0  0  0  0  0  0  0  0  0
    7.9970   13.2970   22.6250 O   0  0  0  0  0  0  0  0  0  0  0  0
    9.6640   14.8120   22.9340 N   0  0  0  0  0  0  0  0  0  0  0  0
    9.5540   15.2920   21.5520 C   0  0  0  0  0  0  0  0  0  0  0  0
   10.8710   15.0560   20.8060 C   0  0  1  0  0  0  0  0  0  0  0  0
   10.7540   15.5680   19.3810 C   0  0  0  0  0  0  0  0  0  0  0  0
   10.3520   16.7180   19.1500 O   0  0  0  0  0  0  0  0  0  0  0  0
   10.9920   14.6680   18.4280 N   0  0  0  0  0  0  0  0  0  0  0  0
   12.0200   15.7450   21.5720 C   0  0  0  0  0  0  0  0  0  0  0  0
   12.0770   15.2470   23.0200 C   0  0  0  0  0  0  0  0  0  0  0  0
   10.7350   15.4510   23.7150 C   0  0  0  0  0  0  0  0  0  0  0  0
  5  4  1  0
  4  3  1  0
  3  9  2  0
  9  8  1  0
  8  7  2  0
  7  6  1  0
 10  6  1  0
 11 10  1  0
 12 11  2  0
 13 11  1  0
 13 21  1  0
 21 20  1  0
 20 19  1  0
 19 15  1  0
 15 16  1  6
 18 16  1  0
 17 16  2  0
 15 14  1  0
 14 13  1  0
  6  2  2  0
  3  2  1  0
  2  1  1  0
M  END
$$$$
