A71EV2A-x3940_A_201_1_A71EV2A-x0911+A+147+1__LIG
     RDKit          3D

 21 22  0  0  0  0  0  0  0  0999 V2000
   10.5800   16.7390   19.2630 O   0  0  0  0  0  0  0  0  0  0  0  0
   10.9870   15.6120   19.5530 C   0  0  0  0  0  0  0  0  0  0  0  0
   11.4150   14.7490   18.6470 N   0  0  0  0  0  0  0  0  0  0  0  0
   11.0230   15.1340   20.9950 C   0  0  1  0  0  0  0  0  0  0  0  0
   12.0010   15.9740   21.8310 C   0  0  0  0  0  0  0  0  0  0  0  0
   12.0580   15.4910   23.2820 C   0  0  0  0  0  0  0  0  0  0  0  0
   10.6690   15.4790   23.8980 C   0  0  0  0  0  0  0  0  0  0  0  0
    9.6470   15.1850   21.6680 C   0  0  0  0  0  0  0  0  0  0  0  0
    9.7280   14.7240   23.0580 N   0  0  0  0  0  0  0  0  0  0  0  0
    8.9350   13.7240   23.5040 C   0  0  0  0  0  0  0  0  0  0  0  0
    8.0230   13.2710   22.8300 O   0  0  0  0  0  0  0  0  0  0  0  0
    9.2130   13.2000   24.9010 C   0  0  0  0  0  0  0  0  0  0  0  0
    8.2500   12.1090   25.3110 C   0  0  0  0  0  0  0  0  0  0  0  0
    8.4330   10.7920   24.8810 C   0  0  0  0  0  0  0  0  0  0  0  0
    9.5170   10.5960   24.0680 O   0  0  0  0  0  0  0  0  0  0  0  0
    9.6570    9.3270   23.4310 C   0  0  0  0  0  0  0  0  0  0  0  0
    7.1980   12.3850   26.1820 C   0  0  0  0  0  0  0  0  0  0  0  0
    6.3730   11.3670   26.6100 C   0  0  0  0  0  0  0  0  0  0  0  0
    5.0760   11.7380   27.7130 Cl  0  0  0  0  0  0  0  0  0  0  0  0
    6.5510   10.0690   26.1890 C   0  0  0  0  0  0  0  0  0  0  0  0
    7.5840    9.7790   25.3140 C   0  0  0  0  0  0  0  0  0  0  0  0
 16 15  1  0
 15 14  1  0
 14 21  2  0
 21 20  1  0
 20 18  2  0
 19 18  1  0
 18 17  1  0
 17 13  2  0
 14 13  1  0
 13 12  1  0
 12 10  1  0
 11 10  2  0
 10  9  1  0
  9  7  1  0
  7  6  1  0
  6  5  1  0
  5  4  1  0
  4  2  1  6
  3  2  1  0
  2  1  2  0
  8  4  1  0
  9  8  1  0
M  END
$$$$
