A71EV2A-x3993_A_201_1_A71EV2A-x0911+A+147+1__LIG
     RDKit          3D

 27 29  0  0  0  0  0  0  0  0999 V2000
   13.1630   17.3600   24.3300 O   0  0  0  0  0  0  0  0  0  0  0  0
   12.8630   16.1720   24.2580 C   0  0  0  0  0  0  0  0  0  0  0  0
   13.4450   15.2410   25.0280 N   0  0  0  0  0  0  0  0  0  0  0  0
   14.3880   15.5750   26.0940 C   0  0  0  0  0  0  0  0  0  0  0  0
   14.5880   14.6120   27.2010 C   0  0  0  0  0  0  0  0  0  0  0  0
   13.8500   15.8790   27.4420 C   0  0  0  0  0  0  0  0  0  0  0  0
   11.7300   15.6990   23.3600 C   0  0  1  0  0  0  0  0  0  0  0  0
   12.1360   15.5830   21.8890 C   0  0  0  0  0  0  0  0  0  0  0  0
   10.8320   15.6580   21.0860 C   0  0  1  0  0  0  0  0  0  0  0  0
   10.9920   15.8240   19.5840 C   0  0  0  0  0  0  0  0  0  0  0  0
   10.6680   16.8720   19.0300 O   0  0  0  0  0  0  0  0  0  0  0  0
   11.4000   14.7580   18.9070 N   0  0  0  0  0  0  0  0  0  0  0  0
    9.9230   14.4780   21.4360 C   0  0  0  0  0  0  0  0  0  0  0  0
   10.9250   14.4640   23.7550 C   0  0  0  0  0  0  0  0  0  0  0  0
    9.7690   14.2390   22.8780 N   0  0  0  0  0  0  0  0  0  0  0  0
    8.6810   13.5590   23.3050 C   0  0  0  0  0  0  0  0  0  0  0  0
    7.7290   13.3190   22.5730 O   0  0  0  0  0  0  0  0  0  0  0  0
    8.7340   13.0410   24.7310 C   0  0  0  0  0  0  0  0  0  0  0  0
    7.7090   11.9780   25.0460 C   0  0  0  0  0  0  0  0  0  0  0  0
    7.9240   10.6490   24.6480 C   0  0  0  0  0  0  0  0  0  0  0  0
    9.0080   10.4560   23.8260 O   0  0  0  0  0  0  0  0  0  0  0  0
    9.2740    9.1300   23.3670 C   0  0  0  0  0  0  0  0  0  0  0  0
    6.5940   12.2400   25.8430 C   0  0  0  0  0  0  0  0  0  0  0  0
    6.2180   13.8810   26.2650 Cl  0  0  0  0  0  0  0  0  0  0  0  0
    5.7550   11.2400   26.2900 C   0  0  0  0  0  0  0  0  0  0  0  0
    6.0090    9.9350   25.9180 C   0  0  0  0  0  0  0  0  0  0  0  0
    7.0780    9.6380   25.0860 C   0  0  0  0  0  0  0  0  0  0  0  0
 22 21  1  0
 21 20  1  0
 20 27  2  0
 27 26  1  0
 26 25  2  0
 25 23  1  0
 24 23  1  0
 23 19  2  0
 20 19  1  0
 19 18  1  0
 18 16  1  0
 17 16  2  0
 16 15  1  0
 15 13  1  0
 13  9  1  0
  9 10  1  6
 12 10  1  0
 11 10  2  0
  9  8  1  0
  8  7  1  0
  7  2  1  1
  2  1  2  0
  3  2  1  0
  4  3  1  0
  4  6  1  0
  6  5  1  0
  5  4  1  0
 14  7  1  0
 15 14  1  0
M  END
$$$$
