A71EV2A-x4032_C_201_1_A71EV2A-x0911+A+147+1__LIG
     RDKit          3D

 20 21  0  0  0  0  0  0  0  0999 V2000
   10.5800   16.7290   19.0480 O   0  0  0  0  0  0  0  0  0  0  0  0
   11.1700   15.6400   19.1980 C   0  0  0  0  0  0  0  0  0  0  0  0
   11.0710   14.6340   18.3360 N   0  0  0  0  0  0  0  0  0  0  0  0
   11.9660   15.3600   20.4500 C   0  0  0  0  0  0  0  0  0  0  0  0
   11.2760   15.8630   21.7050 C   0  0  2  0  0  0  0  0  0  0  0  0
   12.0770   15.5990   22.9870 C   0  0  0  0  0  0  0  0  0  0  0  0
   11.5230   14.3020   23.5590 C   0  0  0  0  0  0  0  0  0  0  0  0
    9.9110   15.1810   21.9470 C   0  0  0  0  0  0  0  0  0  0  0  0
   10.1310   14.2730   23.0750 N   0  0  0  0  0  0  0  0  0  0  0  0
    9.1400   13.4810   23.5250 C   0  0  0  0  0  0  0  0  0  0  0  0
    8.0380   13.4280   22.9780 O   0  0  0  0  0  0  0  0  0  0  0  0
    9.4650   12.6860   24.7770 C   0  0  0  0  0  0  0  0  0  0  0  0
    8.3460   11.7490   25.1730 C   0  0  0  0  0  0  0  0  0  0  0  0
    8.3180   10.4500   24.6710 C   0  0  0  0  0  0  0  0  0  0  0  0
    9.3020   10.1730   23.7670 O   0  0  0  0  0  0  0  0  0  0  0  0
    9.4550    8.8230   23.3110 C   0  0  0  0  0  0  0  0  0  0  0  0
    7.3830   12.1160   26.1110 C   0  0  0  0  0  0  0  0  0  0  0  0
    6.4360   11.2060   26.5520 C   0  0  0  0  0  0  0  0  0  0  0  0
    6.4190    9.9280   26.0470 C   0  0  0  0  0  0  0  0  0  0  0  0
    7.3510    9.5410   25.0910 C   0  0  0  0  0  0  0  0  0  0  0  0
 16 15  1  0
 15 14  1  0
 14 20  2  0
 20 19  1  0
 19 18  2  0
 18 17  1  0
 17 13  2  0
 14 13  1  0
 13 12  1  0
 12 10  1  0
 11 10  2  0
 10  9  1  0
  9  7  1  0
  7  6  1  0
  6  5  1  0
  5  4  1  6
  4  2  1  0
  3  2  1  0
  2  1  2  0
  8  5  1  0
  9  8  1  0
M  END
$$$$
