XX01ZVNS2B-x1664_B_301_1_XX01ZVNS2B-x4590+B+203+1__LIG
     RDKit          3D

 12 13  0  0  0  0  0  0  0  0999 V2000
   -3.3130    5.6060  -18.9590 N   0  0  0  0  0  0  0  0  0  0  0  0
   -4.4360    5.3910  -18.2400 C   0  0  0  0  0  0  0  0  0  0  0  0
   -4.4220    5.6090  -16.8280 C   0  0  0  0  0  0  0  0  0  0  0  0
   -5.5500    5.3910  -16.1170 C   0  0  0  0  0  0  0  0  0  0  0  0
   -6.7230    4.9480  -16.7730 C   0  0  0  0  0  0  0  0  0  0  0  0
   -7.9550    4.6800  -16.1110 C   0  0  0  0  0  0  0  0  0  0  0  0
   -9.0520    4.2460  -16.7940 C   0  0  0  0  0  0  0  0  0  0  0  0
   -8.9830    4.0560  -18.1860 C   0  0  0  0  0  0  0  0  0  0  0  0
   -7.8230    4.2980  -18.8610 C   0  0  0  0  0  0  0  0  0  0  0  0
   -6.6690    4.7480  -18.1810 C   0  0  0  0  0  0  0  0  0  0  0  0
   -5.5150    4.9780  -18.8970 N   0  0  0  0  0  0  0  0  0  0  0  0
   -8.0890    4.9000  -14.3950 Cl  0  0  0  0  0  0  0  0  0  0  0  0
  1  2  1  0
  2  3  2  0
  3  4  1  0
  4  5  2  0
  5  6  1  0
  6  7  2  0
  7  8  1  0
  8  9  2  0
  9 10  1  0
 10 11  2  0
  6 12  1  0
  2 11  1  0
  5 10  1  0
M  END
$$$$
