A71EV2A-x4324_A_201_1_A71EV2A-x0911+A+147+1__LIG
     RDKit          3D

 20 22  0  0  0  0  0  0  0  0999 V2000
   11.6820   14.6640   24.9090 O   0  0  0  0  0  0  0  0  0  0  0  0
   11.5450   14.7550   23.6900 C   0  0  0  0  0  0  0  0  0  0  0  0
   12.7140   15.1440   22.8220 C   0  0  0  0  0  0  0  0  0  0  0  0
   12.3750   15.6640   21.4190 C   0  0  0  0  0  0  0  0  0  0  0  0
   10.3370   14.6180   23.0850 N   0  0  0  0  0  0  0  0  0  0  0  0
   10.0060   14.8770   21.6760 C   0  0  0  0  0  0  0  0  0  0  0  0
   11.2510   14.8370   20.7850 C   0  0  1  0  0  0  0  0  0  0  0  0
   10.9210   15.2980   19.3740 C   0  0  0  0  0  0  0  0  0  0  0  0
   10.3510   16.3810   19.1690 O   0  0  0  0  0  0  0  0  0  0  0  0
   11.2030   14.4380   18.4070 N   0  0  0  0  0  0  0  0  0  0  0  0
    9.1630   14.3020   23.8990 C   0  0  0  0  0  0  0  0  0  0  0  0
    8.9010   12.8250   24.0810 C   0  0  0  0  0  0  0  0  0  0  0  0
    7.8750   12.4180   24.9380 C   0  0  0  0  0  0  0  0  0  0  0  0
    7.0230   13.2630   25.6120 O   0  0  0  0  0  0  0  0  0  0  0  0
    6.0840   12.4160   26.3560 C   0  0  0  0  0  0  0  0  0  0  0  0
    6.5310   10.9550   26.1890 C   0  0  0  0  0  0  0  0  0  0  0  0
    7.6460   11.0770   25.1820 C   0  0  0  0  0  0  0  0  0  0  0  0
    8.4260   10.1120   24.5530 C   0  0  0  0  0  0  0  0  0  0  0  0
    9.4090   10.4930   23.6630 C   0  0  0  0  0  0  0  0  0  0  0  0
    9.6550   11.8400   23.4390 C   0  0  0  0  0  0  0  0  0  0  0  0
 10  8  1  0
  9  8  2  0
  7  8  1  6
  7  4  1  0
  4  3  1  0
  3  2  1  0
  2  1  2  0
  5  2  1  0
 11  5  1  0
 12 11  1  0
 12 20  2  0
 20 19  1  0
 19 18  2  0
 18 17  1  0
 17 13  2  0
 13 12  1  0
 14 13  1  0
 15 14  1  0
 16 15  1  0
 17 16  1  0
  6  5  1  0
  7  6  1  0
M  END
$$$$
