A71EV2A-x4449_C_201_1_A71EV2A-x0911+A+147+1__LIG
     RDKit          3D

 24 25  0  0  0  0  0  0  0  0999 V2000
   10.3990   16.6280   19.2010 O   0  0  0  0  0  0  0  0  0  0  0  0
   10.8170   15.4750   19.3960 C   0  0  0  0  0  0  0  0  0  0  0  0
   11.0830   14.6220   18.4200 N   0  0  0  0  0  0  0  0  0  0  0  0
   10.9800   14.9250   20.8020 C   0  0  1  0  0  0  0  0  0  0  0  0
   12.1100   15.6440   21.5630 C   0  0  0  0  0  0  0  0  0  0  0  0
   12.2430   15.0720   22.9770 C   0  0  0  0  0  0  0  0  0  0  0  0
   10.9050   15.1610   23.7190 C   0  0  0  0  0  0  0  0  0  0  0  0
    9.6640   15.0800   21.5720 C   0  0  0  0  0  0  0  0  0  0  0  0
    9.7970   14.5690   22.9410 N   0  0  0  0  0  0  0  0  0  0  0  0
    8.8720   13.7060   23.4350 C   0  0  0  0  0  0  0  0  0  0  0  0
    7.9590   13.2710   22.7450 O   0  0  0  0  0  0  0  0  0  0  0  0
    8.9630   13.3010   24.9390 C   0  0  1  0  0  0  0  0  0  0  0  0
    8.6560   14.4680   25.7660 N   0  0  0  0  0  0  0  0  0  0  0  0
    9.4670   14.8630   26.7620 C   0  0  0  0  0  0  0  0  0  0  0  0
   10.5580   14.3240   26.9720 O   0  0  0  0  0  0  0  0  0  0  0  0
    8.9800   16.0280   27.5760 C   0  0  0  0  0  0  0  0  0  0  0  0
    8.0270   12.1320   25.2500 C   0  0  0  0  0  0  0  0  0  0  0  0
    8.2670   10.8470   24.7460 C   0  0  0  0  0  0  0  0  0  0  0  0
    9.3600   10.7280   23.9280 O   0  0  0  0  0  0  0  0  0  0  0  0
    9.7750    9.4090   23.5470 C   0  0  0  0  0  0  0  0  0  0  0  0
    6.9520   12.2970   26.1210 C   0  0  0  0  0  0  0  0  0  0  0  0
    6.1500   11.2260   26.4880 C   0  0  0  0  0  0  0  0  0  0  0  0
    6.4070    9.9730   25.9930 C   0  0  0  0  0  0  0  0  0  0  0  0
    7.4610    9.7730   25.1140 C   0  0  0  0  0  0  0  0  0  0  0  0
 20 19  1  0
 19 18  1  0
 18 24  2  0
 24 23  1  0
 23 22  2  0
 22 21  1  0
 21 17  2  0
 18 17  1  0
 17 12  1  0
 12 13  1  1
 14 13  1  0
 16 14  1  0
 15 14  2  0
 12 10  1  0
 11 10  2  0
 10  9  1  0
  9  7  1  0
  7  6  1  0
  6  5  1  0
  5  4  1  0
  4  2  1  6
  3  2  1  0
  2  1  2  0
  8  4  1  0
  9  8  1  0
M  END
$$$$
