XX01ZVNS2B-x1728_B_301_1_XX01ZVNS2B-x4590+B+203+1__LIG
     RDKit          3D

 22 23  0  0  0  0  0  0  0  0999 V2000
   -4.9100    4.0260  -12.9480 C   0  0  0  0  0  0  0  0  0  0  0  0
   -5.4540    2.9070  -12.1200 C   0  0  0  0  0  0  0  0  0  0  0  0
   -4.9730    2.6250  -11.0250 O   0  0  0  0  0  0  0  0  0  0  0  0
   -6.5150    2.2510  -12.6020 N   0  0  0  0  0  0  0  0  0  0  0  0
   -7.8340    2.8570  -12.7210 C   0  0  1  0  0  0  0  0  0  0  0  0
   -8.2280    3.5600  -11.4190 C   0  0  0  0  0  0  0  0  0  0  0  0
   -9.0890    2.6930  -10.5110 C   0  0  0  0  0  0  0  0  0  0  0  0
   -8.6060    2.6090   -9.0720 C   0  0  0  0  0  0  0  0  0  0  0  0
   -8.8590    1.3140   -8.4330 N   0  0  0  0  0  0  0  0  0  0  0  0
   -7.9540    3.7780  -13.9500 C   0  0  0  0  0  0  0  0  0  0  0  0
   -7.6170    4.9540  -13.9130 O   0  0  0  0  0  0  0  0  0  0  0  0
   -8.4500    3.1800  -15.0540 N   0  0  0  0  0  0  0  0  0  0  0  0
   -8.6510    3.7350  -16.3240 C   0  0  0  0  0  0  0  0  0  0  0  0
   -9.8630    3.7750  -16.9670 C   0  0  0  0  0  0  0  0  0  0  0  0
   -9.9750    4.3350  -18.2480 C   0  0  0  0  0  0  0  0  0  0  0  0
   -8.8850    4.8470  -18.8860 C   0  0  0  0  0  0  0  0  0  0  0  0
   -7.6180    4.8190  -18.2660 C   0  0  0  0  0  0  0  0  0  0  0  0
   -6.4620    5.3320  -18.8900 C   0  0  0  0  0  0  0  0  0  0  0  0
   -5.2720    5.2740  -18.2360 C   0  0  0  0  0  0  0  0  0  0  0  0
   -5.2340    4.6970  -16.9520 C   0  0  0  0  0  0  0  0  0  0  0  0
   -6.2860    4.2060  -16.3270 N   0  0  0  0  0  0  0  0  0  0  0  0
   -7.4890    4.2600  -16.9770 C   0  0  0  0  0  0  0  0  0  0  0  0
  1  2  1  0
  2  3  2  0
  2  4  1  0
  4  5  1  0
  5  6  1  1
  6  7  1  0
  7  8  1  0
  8  9  1  0
  5 10  1  0
 10 11  2  0
 10 12  1  0
 12 13  1  0
 13 14  2  0
 14 15  1  0
 15 16  2  0
 16 17  1  0
 17 18  2  0
 18 19  1  0
 19 20  2  0
 20 21  1  0
 21 22  2  0
 13 22  1  0
 17 22  1  0
M  END
$$$$
