ver_1.2
     RDKit          3D

 20 22  0  0  0  0  0  0  0  0999 V2000
   -0.0762   -0.7044    1.9700 C   0  0  0  0  0  0  0  0  0  0  0  0
    0.4538   -0.8175    0.5713 C   0  0  0  0  0  0  0  0  0  0  0  0
    0.7454   -2.2441    0.2746 C   0  0  0  0  0  0  0  0  0  0  0  0
    0.5731   -3.1692    1.1118 O   0  0  0  0  0  0  0  0  0  0  0  0
    1.2358   -2.6153   -0.9836 O   0  0  0  0  0  0  0  0  0  0  0  0
    1.6864    0.0287    0.4319 C   0  0  0  0  0  0  0  0  0  0  0  0
    2.3774    0.0548   -0.7510 C   0  0  0  0  0  0  0  0  0  0  0  0
    3.5100    0.8120   -0.9255 C   0  0  0  0  0  0  0  0  0  0  0  0
    3.9752    1.5759    0.1198 C   0  0  0  0  0  0  0  0  0  0  0  0
    3.2868    1.5550    1.3101 C   0  0  0  0  0  0  0  0  0  0  0  0
    2.1526    0.7946    1.4809 C   0  0  0  0  0  0  0  0  0  0  0  0
   -0.5772   -0.3620   -0.3684 N   0  0  0  0  0  0  0  0  0  0  0  0
   -0.4535   -0.6042   -1.6955 C   0  0  0  0  0  0  0  0  0  0  0  0
   -1.5486   -0.0648   -2.2575 N   0  0  0  0  0  0  0  0  0  0  0  0
   -2.3207    0.4883   -1.3289 C   0  0  0  0  0  0  0  0  0  0  0  0
   -3.5271    1.1578   -1.3747 C   0  0  0  0  0  0  0  0  0  0  0  0
   -4.0757    1.6183   -0.1994 C   0  0  0  0  0  0  0  0  0  0  0  0
   -3.4559    1.4297    1.0156 C   0  0  0  0  0  0  0  0  0  0  0  0
   -2.2524    0.7616    1.0590 C   0  0  0  0  0  0  0  0  0  0  0  0
   -1.7092    0.3049   -0.1112 C   0  0  0  0  0  0  0  0  0  0  0  0
  1  2  1  0
  2  3  1  0
  3  4  2  0
  3  5  1  0
  2  6  1  0
  6  7  2  0
  7  8  1  0
  8  9  2  0
  9 10  1  0
 10 11  2  0
  2 12  1  0
 12 13  1  0
 13 14  2  0
 14 15  1  0
 15 16  2  0
 16 17  1  0
 17 18  2  0
 18 19  1  0
 19 20  2  0
 11  6  1  0
 20 12  1  0
 20 15  1  0
M  END
>  <ref_url>  (1) 
https://github.com/mwinokan/BulkDock

>  <submitter_name>  (1) 
Max Winokan

>  <submitter_email>  (1) 
max.winokan@diamond.ac.uk

>  <submitter_institution>  (1) 
DLS

>  <generation_date>  (1) 
2025-11-25

>  <method>  (1) 
openbind_xx01zvns2b_c1_knitwork_impure

>  <HIPPO Pose ID>  (1) 
HIPPO Pose ID

>  <HIPPO Compound ID>  (1) 
HIPPO Compound ID

>  <smiles>  (1) 
smiles

>  <ref_pdb>  (1) 
protein reference

>  <ref_mols>  (1) 
fragment inspirations

>  <alias>  (1) 
alias

>  <distance_score>  (1) 
distance_score

>  <energy_score>  (1) 
energy_score

>  <inspiration_score>  (1) 
inspiration_score

>  <subsites>  (1) 
subsites

>  <tags>  (1) 
tags

>  <placement_batch>  (1) 
BulkDock placement batch

$$$$
P52741
     RDKit          3D

 20 22  0  0  0  0  0  0  0  0999 V2000
   -9.7674   12.9231   -9.8564 C   0  0  0  0  0  0  0  0  0  0  0  0
  -10.9474   13.9146  -10.0701 C   0  0  2  0  0  0  0  0  0  0  0  0
  -11.1701   14.1213  -11.5874 C   0  0  0  0  0  0  0  0  0  0  0  0
  -11.6467   15.1005  -12.1427 O   0  0  0  0  0  0  0  0  0  0  0  0
  -10.8564   13.0478  -12.3484 O   0  0  0  0  0  0  0  0  0  0  0  0
  -10.4957   15.1906   -9.3098 C   0  0  0  0  0  0  0  0  0  0  0  0
  -10.6204   15.2684   -7.9054 C   0  0  0  0  0  0  0  0  0  0  0  0
  -10.1726   16.3864   -7.1983 C   0  0  0  0  0  0  0  0  0  0  0  0
   -9.5691   17.4421   -7.8730 C   0  0  0  0  0  0  0  0  0  0  0  0
   -9.4063   17.3769   -9.2532 C   0  0  0  0  0  0  0  0  0  0  0  0
   -9.8572   16.2609   -9.9642 C   0  0  0  0  0  0  0  0  0  0  0  0
  -12.2336   13.3959   -9.5592 N   0  0  0  0  0  0  0  0  0  0  0  0
  -12.5233   12.0641   -9.3972 C   0  0  0  0  0  0  0  0  0  0  0  0
  -13.7745   11.8674   -9.0738 N   0  0  0  0  0  0  0  0  0  0  0  0
  -14.3463   13.1021   -9.0414 C   0  0  0  0  0  0  0  0  0  0  0  0
  -15.6772   13.4470   -8.7706 C   0  0  0  0  0  0  0  0  0  0  0  0
  -16.0495   14.7935   -8.7814 C   0  0  0  0  0  0  0  0  0  0  0  0
  -15.1037   15.7802   -9.0495 C   0  0  0  0  0  0  0  0  0  0  0  0
  -13.7691   15.4504   -9.3268 C   0  0  0  0  0  0  0  0  0  0  0  0
  -13.4108   14.0943   -9.3248 C   0  0  0  0  0  0  0  0  0  0  0  0
  2  1  1  6
  2  3  1  0
  3  4  2  0
  3  5  1  0
  2  6  1  0
  6  7  2  0
  7  8  1  0
  8  9  2  0
  9 10  1  0
 10 11  2  0
  2 12  1  0
 12 13  1  0
 13 14  2  0
 14 15  1  0
 15 16  2  0
 16 17  1  0
 17 18  2  0
 18 19  1  0
 19 20  2  0
 11  6  1  0
 20 12  1  0
 20 15  1  0
M  END
>  <tags>  (1) 
openbind_xx01zvns2b_c1_knitwork_impure,fragmenstein_placed,openbind_xx01zvns2b_c1_scaffolds_chemok_bbok,BulkDock Fragalysis export,openbind_xx01zvns2b_c1_scaffolds

>  <placement_batch>  (1) 
openbind_xx01zvns2b_c1_knitwork_impure

>  <inspiration_score>  (1) 
None

>  <name>  (1) 
P52741

>  <HIPPO Pose ID>  (1) 
52741

>  <ref_pdb>  (1) 
Z0846b

>  <inchikey>  (1) 
CWIZBLXOMDFLTJ-UHFFFAOYSA-N

>  <alias>  (1) 
None

>  <ref_mols>  (1) 
Z0846b,Z0422a

>  <subsites>  (1) 
1 - Z4590/B/203/1,7 - Z0846/B/301/1

>  <distance_score>  (1) 
0.534493

>  <HIPPO Compound ID>  (1) 
57725

>  <smiles>  (1) 
C[C@](C(=O)O)(c1ccccc1)n1cnc2ccccc21

>  <energy_score>  (1) 
-37.582102

$$$$
P53144
     RDKit          3D

 15 17  0  0  0  0  0  0  0  0999 V2000
   -8.1919    4.5869  -17.9421 C   0  0  0  0  0  0  0  0  0  0  0  0
   -9.0189    4.3571  -16.8548 C   0  0  0  0  0  0  0  0  0  0  0  0
   -8.4995    4.4364  -15.5615 C   0  0  0  0  0  0  0  0  0  0  0  0
   -7.1391    4.7464  -15.3269 C   0  0  0  0  0  0  0  0  0  0  0  0
   -6.5379    4.8118  -14.0372 C   0  0  0  0  0  0  0  0  0  0  0  0
   -7.2416    4.4348  -12.7977 C   0  0  0  0  0  0  0  0  0  0  0  0
   -7.7770    3.2187  -12.4169 C   0  0  0  0  0  0  0  0  0  0  0  0
   -8.3145    3.2811  -11.0999 C   0  0  0  0  0  0  0  0  0  0  0  0
   -8.2112    4.4470  -10.4698 N   0  0  0  0  0  0  0  0  0  0  0  0
   -7.4736    5.5258  -11.4897 S   0  0  0  0  0  0  0  0  0  0  0  0
   -5.1874    5.1619  -13.9442 C   0  0  0  0  0  0  0  0  0  0  0  0
   -4.4857    5.4209  -15.1043 C   0  0  0  0  0  0  0  0  0  0  0  0
   -5.0202    5.3515  -16.3374 N   0  0  0  0  0  0  0  0  0  0  0  0
   -6.3153    5.0122  -16.4494 C   0  0  0  0  0  0  0  0  0  0  0  0
   -6.8554    4.9199  -17.7269 C   0  0  0  0  0  0  0  0  0  0  0  0
  1  2  2  0
  2  3  1  0
  3  4  2  0
  4  5  1  0
  5  6  1  0
  6  7  2  0
  7  8  1  0
  8  9  2  0
  9 10  1  0
  5 11  2  0
 11 12  1  0
 12 13  2  0
 13 14  1  0
 14 15  2  0
 15  1  1  0
 14  4  1  0
 10  6  1  0
M  END
>  <tags>  (2) 
openbind_xx01zvns2b_c1_knitwork_impure,BulkDock Fragalysis export,fragmenstein_placed,openbind_xx01zvns2b_c1_scaffolds

>  <placement_batch>  (2) 
openbind_xx01zvns2b_c1_knitwork_impure

>  <inspiration_score>  (2) 
None

>  <name>  (2) 
P53144

>  <HIPPO Pose ID>  (2) 
53144

>  <ref_pdb>  (2) 
Z1716a

>  <inchikey>  (2) 
BWJAZLISHCRGOU-UHFFFAOYSA-N

>  <alias>  (2) 
None

>  <ref_mols>  (2) 
Z1274a,Z1342a,Z0852a,Z1597a,Z0465a,Z0673a,Z1716a

>  <subsites>  (2) 
1 - Z4590/B/203/1

>  <distance_score>  (2) 
0.981134

>  <HIPPO Compound ID>  (2) 
58699

>  <smiles>  (2) 
c1ccc2c(-c3ccns3)ccnc2c1

>  <energy_score>  (2) 
-25.78227

$$$$
P53155
     RDKit          3D

 16 18  0  0  0  0  0  0  0  0999 V2000
   -4.6786    8.3988  -20.3687 S   0  0  0  0  0  0  0  0  0  0  0  0
   -5.0897    6.8956  -19.8452 C   0  0  0  0  0  0  0  0  0  0  0  0
   -4.9192    5.6808  -20.4284 N   0  0  0  0  0  0  0  0  0  0  0  0
   -5.5745    4.7094  -19.7281 N   0  0  0  0  0  0  0  0  0  0  0  0
   -6.0213    5.3712  -18.7128 C   0  0  0  0  0  0  0  0  0  0  0  0
   -6.8480    4.9326  -17.6205 C   0  0  0  0  0  0  0  0  0  0  0  0
   -8.1726    4.5766  -17.8944 C   0  0  0  0  0  0  0  0  0  0  0  0
   -9.0198    4.3091  -16.8329 C   0  0  0  0  0  0  0  0  0  0  0  0
   -8.5265    4.3784  -15.5304 C   0  0  0  0  0  0  0  0  0  0  0  0
   -7.1807    4.7007  -15.2779 C   0  0  0  0  0  0  0  0  0  0  0  0
   -6.6729    4.7491  -13.9736 C   0  0  0  0  0  0  0  0  0  0  0  0
   -5.3407    5.0797  -13.7570 C   0  0  0  0  0  0  0  0  0  0  0  0
   -4.5542    5.3550  -14.8556 C   0  0  0  0  0  0  0  0  0  0  0  0
   -5.0090    5.3219  -16.1230 N   0  0  0  0  0  0  0  0  0  0  0  0
   -6.3069    4.9915  -16.3390 C   0  0  0  0  0  0  0  0  0  0  0  0
   -5.7517    6.7021  -18.6846 O   0  0  0  0  0  0  0  0  0  0  0  0
  1  2  2  0
  2  3  1  0
  3  4  1  0
  4  5  2  0
  5  6  1  0
  6  7  2  0
  7  8  1  0
  8  9  2  0
  9 10  1  0
 10 11  2  0
 11 12  1  0
 12 13  2  0
 13 14  1  0
 14 15  2  0
  5 16  1  0
 16  2  1  0
 15  6  1  0
 15 10  1  0
M  END
>  <tags>  (3) 
openbind_xx01zvns2b_c1_knitwork_impure,BulkDock Fragalysis export,fragmenstein_placed,openbind_xx01zvns2b_c1_scaffolds

>  <placement_batch>  (3) 
openbind_xx01zvns2b_c1_knitwork_impure

>  <inspiration_score>  (3) 
None

>  <name>  (3) 
P53155

>  <HIPPO Pose ID>  (3) 
53155

>  <ref_pdb>  (3) 
Z1716a

>  <inchikey>  (3) 
UNQNHXMQMGHNIL-UHFFFAOYSA-N

>  <alias>  (3) 
None

>  <ref_mols>  (3) 
Z1342a,Z1716a

>  <subsites>  (3) 
1 - Z4590/B/203/1

>  <distance_score>  (3) 
0.901302

>  <HIPPO Compound ID>  (3) 
58717

>  <smiles>  (3) 
S=c1[nH]nc(-c2cccc3cccnc23)o1

>  <energy_score>  (3) 
-15.522601

$$$$
P53156
     RDKit          3D

 16 18  0  0  0  0  0  0  0  0999 V2000
   -8.4177    2.9795   -9.7376 S   0  0  0  0  0  0  0  0  0  0  0  0
   -8.0953    3.7611  -11.1525 C   0  0  0  0  0  0  0  0  0  0  0  0
   -8.4567    5.0563  -11.4033 N   0  0  0  0  0  0  0  0  0  0  0  0
   -7.9964    5.6339  -12.5472 N   0  0  0  0  0  0  0  0  0  0  0  0
   -7.3097    4.7498  -13.2052 C   0  0  0  0  0  0  0  0  0  0  0  0
   -6.5981    5.0019  -14.4566 C   0  0  0  0  0  0  0  0  0  0  0  0
   -5.2621    5.3831  -14.3553 C   0  0  0  0  0  0  0  0  0  0  0  0
   -4.5722    5.5796  -15.5289 C   0  0  0  0  0  0  0  0  0  0  0  0
   -5.1189    5.4270  -16.7516 N   0  0  0  0  0  0  0  0  0  0  0  0
   -6.4117    5.0529  -16.8427 C   0  0  0  0  0  0  0  0  0  0  0  0
   -6.9750    4.8780  -18.0992 C   0  0  0  0  0  0  0  0  0  0  0  0
   -8.3105    4.5038  -18.2640 C   0  0  0  0  0  0  0  0  0  0  0  0
   -9.1151    4.3059  -17.1535 C   0  0  0  0  0  0  0  0  0  0  0  0
   -8.5738    4.4615  -15.8809 C   0  0  0  0  0  0  0  0  0  0  0  0
   -7.2205    4.8336  -15.7087 C   0  0  0  0  0  0  0  0  0  0  0  0
   -7.1731    3.1654  -12.4983 S   0  0  0  0  0  0  0  0  0  0  0  0
  1  2  2  0
  2  3  1  0
  3  4  1  0
  4  5  2  0
  5  6  1  0
  6  7  2  0
  7  8  1  0
  8  9  2  0
  9 10  1  0
 10 11  2  0
 11 12  1  0
 12 13  2  0
 13 14  1  0
 14 15  2  0
  5 16  1  0
 16  2  1  0
 15  6  1  0
 15 10  1  0
M  END
>  <tags>  (4) 
openbind_xx01zvns2b_c1_knitwork_impure,BulkDock Fragalysis export,fragmenstein_placed,openbind_xx01zvns2b_c1_scaffolds

>  <placement_batch>  (4) 
openbind_xx01zvns2b_c1_knitwork_impure

>  <inspiration_score>  (4) 
None

>  <name>  (4) 
P53156

>  <HIPPO Pose ID>  (4) 
53156

>  <ref_pdb>  (4) 
Z1716a

>  <inchikey>  (4) 
LFJOPEBLDLHNDY-UHFFFAOYSA-N

>  <alias>  (4) 
None

>  <ref_mols>  (4) 
Z1342a,Z1716a

>  <subsites>  (4) 
1 - Z4590/B/203/1

>  <distance_score>  (4) 
0.990641

>  <HIPPO Compound ID>  (4) 
58719

>  <smiles>  (4) 
S=c1[nH]nc(-c2ccnc3ccccc23)s1

>  <energy_score>  (4) 
-60.290104

$$$$
P53186
     RDKit          3D

 21 24  0  0  0  0  0  0  0  0999 V2000
   -6.3073    6.5156   -9.9941 O   0  0  0  0  0  0  0  0  0  0  0  0
   -6.9472    5.8870  -11.1058 C   0  0  1  0  0  0  0  0  0  0  0  0
   -7.7503    4.7604  -10.5614 C   0  0  0  0  0  0  0  0  0  0  0  0
   -8.3564    3.6696  -11.1519 C   0  0  0  0  0  0  0  0  0  0  0  0
   -8.9155    2.9502  -10.0839 C   0  0  0  0  0  0  0  0  0  0  0  0
   -8.6960    3.5332   -8.9042 N   0  0  0  0  0  0  0  0  0  0  0  0
   -7.9713    4.6130   -9.2208 N   0  0  0  0  0  0  0  0  0  0  0  0
   -7.7822    6.9115  -11.8689 C   0  0  0  0  0  0  0  0  0  0  0  0
   -7.8921    6.3358  -13.2808 C   0  0  0  0  0  0  0  0  0  0  0  0
   -6.7319    5.4448  -13.4325 N   0  0  0  0  0  0  0  0  0  0  0  0
   -6.1469    5.2895  -14.6864 C   0  0  0  0  0  0  0  0  0  0  0  0
   -4.7666    5.4570  -14.8408 C   0  0  0  0  0  0  0  0  0  0  0  0
   -4.2116    5.4405  -16.1030 C   0  0  0  0  0  0  0  0  0  0  0  0
   -4.9187    5.2665  -17.2280 N   0  0  0  0  0  0  0  0  0  0  0  0
   -6.2314    5.0163  -17.1082 C   0  0  0  0  0  0  0  0  0  0  0  0
   -6.9485    4.7829  -18.2729 C   0  0  0  0  0  0  0  0  0  0  0  0
   -8.3054    4.4628  -18.2562 C   0  0  0  0  0  0  0  0  0  0  0  0
   -8.9637    4.3466  -17.0456 C   0  0  0  0  0  0  0  0  0  0  0  0
   -8.2645    4.5831  -15.8625 C   0  0  0  0  0  0  0  0  0  0  0  0
   -6.9004    4.9746  -15.8600 C   0  0  0  0  0  0  0  0  0  0  0  0
   -5.9475    5.4279  -12.1873 C   0  0  0  0  0  0  0  0  0  0  0  0
  2  1  1  1
  2  3  1  0
  3  4  2  0
  4  5  1  0
  5  6  2  0
  6  7  1  0
  2  8  1  0
  8  9  1  0
  9 10  1  0
 10 11  1  0
 11 12  2  0
 12 13  1  0
 13 14  2  0
 14 15  1  0
 15 16  2  0
 16 17  1  0
 17 18  2  0
 18 19  1  0
 19 20  2  0
 10 21  1  0
 21  2  1  0
  7  3  1  0
 20 11  1  0
 20 15  1  0
M  END
>  <tags>  (5) 
openbind_xx01zvns2b_c1_knitwork_impure,fragmenstein_placed,openbind_xx01zvns2b_c1_scaffolds_chemok_bbok,BulkDock Fragalysis export,openbind_xx01zvns2b_c1_scaffolds

>  <placement_batch>  (5) 
openbind_xx01zvns2b_c1_knitwork_impure

>  <inspiration_score>  (5) 
None

>  <name>  (5) 
P53186

>  <HIPPO Pose ID>  (5) 
53186

>  <ref_pdb>  (5) 
Z1716a

>  <inchikey>  (5) 
MROZTCWIWNBIGB-UHFFFAOYSA-N

>  <alias>  (5) 
None

>  <ref_mols>  (5) 
Z1342a,Z1716a

>  <subsites>  (5) 
1 - Z4590/B/203/1

>  <distance_score>  (5) 
0.80443

>  <HIPPO Compound ID>  (5) 
58755

>  <smiles>  (5) 
O[C@@]1(c2ccn[nH]2)CCN(c2ccnc3ccccc23)C1

>  <energy_score>  (5) 
-31.408804

$$$$
P53189
     RDKit          3D

 21 24  0  0  0  0  0  0  0  0999 V2000
  -10.1754    4.2896  -17.6745 Br  0  0  0  0  0  0  0  0  0  0  0  0
   -8.3524    4.5333  -17.3529 C   0  0  0  0  0  0  0  0  0  0  0  0
   -7.5034    4.5631  -18.4377 C   0  0  0  0  0  0  0  0  0  0  0  0
   -6.1573    4.8146  -18.2322 C   0  0  0  0  0  0  0  0  0  0  0  0
   -5.6459    5.0331  -16.9661 C   0  0  0  0  0  0  0  0  0  0  0  0
   -4.3235    5.2066  -16.8978 N   0  0  0  0  0  0  0  0  0  0  0  0
   -3.7849    5.3600  -15.6838 C   0  0  0  0  0  0  0  0  0  0  0  0
   -4.5217    5.4162  -14.5196 C   0  0  0  0  0  0  0  0  0  0  0  0
   -5.9207    5.3248  -14.5581 C   0  0  0  0  0  0  0  0  0  0  0  0
   -6.6503    5.4975  -13.3819 N   0  0  0  0  0  0  0  0  0  0  0  0
   -7.8835    6.2969  -13.3595 C   0  0  0  0  0  0  0  0  0  0  0  0
   -7.9310    6.9320  -11.9673 C   0  0  0  0  0  0  0  0  0  0  0  0
   -7.0862    6.0069  -11.1002 C   0  0  1  0  0  0  0  0  0  0  0  0
   -7.8417    4.8297  -10.5802 C   0  0  0  0  0  0  0  0  0  0  0  0
   -8.3541    3.7035  -11.1907 C   0  0  0  0  0  0  0  0  0  0  0  0
   -8.9014    2.9485  -10.1426 C   0  0  0  0  0  0  0  0  0  0  0  0
   -8.7470    3.5358   -8.9549 N   0  0  0  0  0  0  0  0  0  0  0  0
   -8.1055    4.6711   -9.2474 N   0  0  0  0  0  0  0  0  0  0  0  0
   -5.9776    5.5991  -12.0746 C   0  0  0  0  0  0  0  0  0  0  0  0
   -6.5065    5.0445  -15.8333 C   0  0  0  0  0  0  0  0  0  0  0  0
   -7.8712    4.7417  -16.0633 C   0  0  0  0  0  0  0  0  0  0  0  0
  1  2  1  0
  2  3  2  0
  3  4  1  0
  4  5  2  0
  5  6  1  0
  6  7  2  0
  7  8  1  0
  8  9  2  0
  9 10  1  0
 10 11  1  0
 11 12  1  0
 12 13  1  0
 13 14  1  6
 14 15  2  0
 15 16  1  0
 16 17  2  0
 17 18  1  0
 13 19  1  0
  9 20  1  0
 20 21  2  0
 21  2  1  0
 20  5  1  0
 19 10  1  0
 18 14  1  0
M  END
>  <tags>  (6) 
openbind_xx01zvns2b_c1_knitwork_impure,BulkDock Fragalysis export,fragmenstein_placed,openbind_xx01zvns2b_c1_scaffolds

>  <placement_batch>  (6) 
openbind_xx01zvns2b_c1_knitwork_impure

>  <inspiration_score>  (6) 
None

>  <name>  (6) 
P53189

>  <HIPPO Pose ID>  (6) 
53189

>  <ref_pdb>  (6) 
Z1716a

>  <inchikey>  (6) 
FOTPABJHLRFZDV-UHFFFAOYSA-N

>  <alias>  (6) 
None

>  <ref_mols>  (6) 
Z1342a,Z1716a

>  <subsites>  (6) 
1 - Z4590/B/203/1

>  <distance_score>  (6) 
0.923785

>  <HIPPO Compound ID>  (6) 
58758

>  <smiles>  (6) 
Brc1ccc2nccc(N3CC[C@@H](c4ccn[nH]4)C3)c2c1

>  <energy_score>  (6) 
-31.334098

$$$$
P53347
     RDKit          3D

 13 13  0  0  0  0  0  0  0  0999 V2000
   -2.3775    4.5653  -18.1069 C   0  0  0  0  0  0  0  0  0  0  0  0
   -2.9250    5.8706  -18.1200 O   0  0  0  0  0  0  0  0  0  0  0  0
   -4.3446    5.8683  -17.9718 C   0  0  0  0  0  0  0  0  0  0  0  0
   -5.0923    5.2478  -19.1804 C   0  0  1  0  0  0  0  0  0  0  0  0
   -6.5143    5.5996  -19.1588 N   0  0  0  0  0  0  0  0  0  0  0  0
   -7.2859    5.0869  -18.1676 C   0  0  0  0  0  0  0  0  0  0  0  0
   -6.9555    5.0331  -16.8967 N   0  0  0  0  0  0  0  0  0  0  0  0
   -7.9997    4.5201  -16.1564 C   0  0  0  0  0  0  0  0  0  0  0  0
   -9.1278    4.2033  -16.8750 C   0  0  0  0  0  0  0  0  0  0  0  0
   -8.8536    4.4756  -18.5343 S   0  0  0  0  0  0  0  0  0  0  0  0
   -4.4347    5.6425  -20.5396 C   0  0  0  0  0  0  0  0  0  0  0  0
   -4.4924    7.1403  -20.8349 C   0  0  0  0  0  0  0  0  0  0  0  0
   -5.0011    4.8642  -21.7269 C   0  0  0  0  0  0  0  0  0  0  0  0
  1  2  1  0
  2  3  1  0
  4  3  1  1
  4  5  1  0
  5  6  1  0
  6  7  2  0
  7  8  1  0
  8  9  2  0
  9 10  1  0
  4 11  1  0
 11 12  1  0
 11 13  1  0
 10  6  1  0
M  END
>  <tags>  (7) 
openbind_xx01zvns2b_c1_knitwork_impure,fragmenstein_placed,openbind_xx01zvns2b_c1_scaffolds_chemok_bbok,BulkDock Fragalysis export,openbind_xx01zvns2b_c1_scaffolds

>  <placement_batch>  (7) 
openbind_xx01zvns2b_c1_knitwork_impure

>  <inspiration_score>  (7) 
None

>  <name>  (7) 
P53347

>  <HIPPO Pose ID>  (7) 
53347

>  <ref_pdb>  (7) 
Z0788a

>  <inchikey>  (7) 
MROCNEMRZGLLAK-UHFFFAOYSA-N

>  <alias>  (7) 
None

>  <ref_mols>  (7) 
Z0788a,Z1597a

>  <subsites>  (7) 
1 - Z4590/B/203/1

>  <distance_score>  (7) 
0.935939

>  <HIPPO Compound ID>  (7) 
59217

>  <smiles>  (7) 
COC[C@@H](Nc1nccs1)C(C)C

>  <energy_score>  (7) 
-77.480765

$$$$
P53355
     RDKit          3D

 12 12  0  0  0  0  0  0  0  0999 V2000
   -1.9643    6.8132  -20.2656 C   0  0  0  0  0  0  0  0  0  0  0  0
   -2.7087    5.7541  -19.9062 C   0  0  0  0  0  0  0  0  0  0  0  0
   -2.0761    4.4824  -19.4023 C   0  0  0  0  0  0  0  0  0  0  0  0
   -4.2186    5.7691  -19.9832 C   0  0  0  0  0  0  0  0  0  0  0  0
   -4.8676    5.7052  -18.5872 C   0  0  0  0  0  0  0  0  0  0  0  0
   -4.2983    5.9514  -17.5974 O   0  0  0  0  0  0  0  0  0  0  0  0
   -6.3070    5.1748  -18.8133 N   0  0  0  0  0  0  0  0  0  0  0  0
   -7.3004    4.9455  -17.9367 C   0  0  0  0  0  0  0  0  0  0  0  0
   -7.2779    5.1122  -16.6395 N   0  0  0  0  0  0  0  0  0  0  0  0
   -8.4833    4.6800  -16.1244 C   0  0  0  0  0  0  0  0  0  0  0  0
   -9.4112    4.2710  -17.0597 C   0  0  0  0  0  0  0  0  0  0  0  0
   -8.7322    4.3466  -18.6239 S   0  0  0  0  0  0  0  0  0  0  0  0
  1  2  2  0
  2  3  1  0
  2  4  1  0
  4  5  1  0
  5  6  2  0
  5  7  1  0
  7  8  1  0
  8  9  2  0
  9 10  1  0
 10 11  2  0
 11 12  1  0
 12  8  1  0
M  END
>  <tags>  (8) 
openbind_xx01zvns2b_c1_knitwork_impure,BulkDock Fragalysis export,fragmenstein_placed,openbind_xx01zvns2b_c1_scaffolds

>  <placement_batch>  (8) 
openbind_xx01zvns2b_c1_knitwork_impure

>  <inspiration_score>  (8) 
None

>  <name>  (8) 
P53355

>  <HIPPO Pose ID>  (8) 
53355

>  <ref_pdb>  (8) 
Z0788a

>  <inchikey>  (8) 
NNNCCTOHQLLMHE-UHFFFAOYSA-N

>  <alias>  (8) 
None

>  <ref_mols>  (8) 
Z0788a,Z1597a

>  <subsites>  (8) 
1 - Z4590/B/203/1

>  <distance_score>  (8) 
0.791132

>  <HIPPO Compound ID>  (8) 
59225

>  <smiles>  (8) 
C=C(C)CC(=O)Nc1nccs1

>  <energy_score>  (8) 
-59.240222

$$$$
P53369
     RDKit          3D

 11 12  0  0  0  0  0  0  0  0999 V2000
   -3.2800    4.9627  -19.7121 C   0  0  0  0  0  0  0  0  0  0  0  0
   -4.0148    5.2024  -18.6214 C   0  0  0  0  0  0  0  0  0  0  0  0
   -5.4536    5.3851  -18.9953 C   0  0  2  0  0  0  0  0  0  0  0  0
   -6.4906    4.8409  -18.0447 C   0  0  0  0  0  0  0  0  0  0  0  0
   -6.3944    5.0491  -16.6605 C   0  0  0  0  0  0  0  0  0  0  0  0
   -7.4405    4.6806  -15.8208 C   0  0  0  0  0  0  0  0  0  0  0  0
   -8.5741    4.1365  -16.3947 C   0  0  0  0  0  0  0  0  0  0  0  0
   -8.7163    3.9057  -17.7124 N   0  0  0  0  0  0  0  0  0  0  0  0
   -7.6704    4.2491  -18.4996 C   0  0  0  0  0  0  0  0  0  0  0  0
   -5.5052    4.8201  -20.3616 N   0  0  0  0  0  0  0  0  0  0  0  0
   -4.1531    4.9219  -20.9129 C   0  0  0  0  0  0  0  0  0  0  0  0
  1  2  2  0
  2  3  1  0
  3  4  1  1
  4  5  2  0
  5  6  1  0
  6  7  2  0
  7  8  1  0
  8  9  2  0
  3 10  1  0
 10 11  1  0
 11  1  1  0
  9  4  1  0
M  END
>  <tags>  (9) 
openbind_xx01zvns2b_c1_knitwork_impure,BulkDock Fragalysis export,fragmenstein_placed,openbind_xx01zvns2b_c1_scaffolds

>  <placement_batch>  (9) 
openbind_xx01zvns2b_c1_knitwork_impure

>  <inspiration_score>  (9) 
None

>  <name>  (9) 
P53369

>  <HIPPO Pose ID>  (9) 
53369

>  <ref_pdb>  (9) 
Z1274a

>  <inchikey>  (9) 
YOYKFUJSSXMYOD-UHFFFAOYSA-N

>  <alias>  (9) 
None

>  <ref_mols>  (9) 
Z0819a,Z1274a

>  <subsites>  (9) 
1 - Z4590/B/203/1

>  <distance_score>  (9) 
0.720511

>  <HIPPO Compound ID>  (9) 
59124

>  <smiles>  (9) 
C1=C[C@H](c2cccnc2)NC1

>  <energy_score>  (9) 
-12.373778

$$$$
P53375
     RDKit          3D

 11 12  0  0  0  0  0  0  0  0999 V2000
   -3.3976    5.1005  -19.7786 C   0  0  0  0  0  0  0  0  0  0  0  0
   -4.0307    5.3626  -18.6288 C   0  0  0  0  0  0  0  0  0  0  0  0
   -5.5102    5.4484  -18.8677 C   0  0  2  0  0  0  0  0  0  0  0  0
   -6.4714    4.9544  -17.7947 C   0  0  0  0  0  0  0  0  0  0  0  0
   -6.1503    5.0184  -16.4387 C   0  0  0  0  0  0  0  0  0  0  0  0
   -7.1248    4.7124  -15.4930 C   0  0  0  0  0  0  0  0  0  0  0  0
   -8.3957    4.3572  -15.9176 C   0  0  0  0  0  0  0  0  0  0  0  0
   -8.6455    4.3003  -17.2728 C   0  0  0  0  0  0  0  0  0  0  0  0
   -7.7285    4.6235  -18.2040 N   0  0  0  0  0  0  0  0  0  0  0  0
   -5.6457    4.7502  -20.1686 N   0  0  0  0  0  0  0  0  0  0  0  0
   -4.3888    4.9425  -20.8782 C   0  0  0  0  0  0  0  0  0  0  0  0
  1  2  2  0
  2  3  1  0
  3  4  1  1
  4  5  2  0
  5  6  1  0
  6  7  2  0
  7  8  1  0
  8  9  2  0
  3 10  1  0
 10 11  1  0
 11  1  1  0
  9  4  1  0
M  END
>  <tags>  (10) 
openbind_xx01zvns2b_c1_knitwork_impure,fragmenstein_placed,openbind_xx01zvns2b_c1_scaffolds_chemok_bbok,BulkDock Fragalysis export,openbind_xx01zvns2b_c1_scaffolds

>  <placement_batch>  (10) 
openbind_xx01zvns2b_c1_knitwork_impure

>  <inspiration_score>  (10) 
None

>  <name>  (10) 
P53375

>  <HIPPO Pose ID>  (10) 
53375

>  <ref_pdb>  (10) 
Z1274a

>  <inchikey>  (10) 
HIUAAHJQXHUFBW-UHFFFAOYSA-N

>  <alias>  (10) 
None

>  <ref_mols>  (10) 
Z0819a,Z1274a

>  <subsites>  (10) 
1 - Z4590/B/203/1

>  <distance_score>  (10) 
0.823393

>  <HIPPO Compound ID>  (10) 
59153

>  <smiles>  (10) 
C1=C[C@H](c2ccccn2)NC1

>  <energy_score>  (10) 
-10.962883

$$$$
P53436
     RDKit          3D

 22 25  0  0  0  0  0  0  0  0999 V2000
   -5.0034    6.2836  -20.3055 C   0  0  0  0  0  0  0  0  0  0  0  0
   -5.6311    5.7041  -19.0836 C   0  0  0  0  0  0  0  0  0  0  0  0
   -5.0883    5.5965  -17.8867 N   0  0  0  0  0  0  0  0  0  0  0  0
   -6.0878    5.1156  -17.0691 C   0  0  0  0  0  0  0  0  0  0  0  0
   -6.0765    4.8707  -15.6877 C   0  0  0  0  0  0  0  0  0  0  0  0
   -7.2577    4.4397  -15.0533 C   0  0  0  0  0  0  0  0  0  0  0  0
   -7.2466    4.1480  -13.5680 C   0  0  0  0  0  0  0  0  0  0  0  0
   -8.4060    4.7389  -12.9014 N   0  0  0  0  0  0  0  0  0  0  0  0
   -8.0666    5.3959  -11.6411 C   0  0  0  0  0  0  0  0  0  0  0  0
   -8.1810    4.5653  -10.4055 C   0  0  0  0  0  0  0  0  0  0  0  0
   -8.1687    5.0221   -9.0969 C   0  0  0  0  0  0  0  0  0  0  0  0
   -8.4257    3.9832   -8.1543 C   0  0  0  0  0  0  0  0  0  0  0  0
   -8.5850    2.7764   -8.7959 C   0  0  0  0  0  0  0  0  0  0  0  0
   -8.3964    2.8718  -10.4689 S   0  0  0  0  0  0  0  0  0  0  0  0
   -8.9398    1.5083   -8.1046 C   0  0  0  0  0  0  0  0  0  0  0  0
   -9.0647    1.7274   -6.5875 C   0  0  0  0  0  0  0  0  0  0  0  0
   -9.4939    3.0829   -6.1780 N   0  0  0  0  0  0  0  0  0  0  0  0
   -8.5481    4.0954   -6.6701 C   0  0  0  0  0  0  0  0  0  0  0  0
   -8.4182    4.2419  -15.8220 C   0  0  0  0  0  0  0  0  0  0  0  0
   -8.4429    4.4528  -17.2054 C   0  0  0  0  0  0  0  0  0  0  0  0
   -7.2552    4.8961  -17.7858 C   0  0  0  0  0  0  0  0  0  0  0  0
   -6.9257    5.2359  -19.0713 N   0  0  0  0  0  0  0  0  0  0  0  0
  1  2  1  0
  2  3  2  0
  3  4  1  0
  4  5  2  0
  5  6  1  0
  6  7  1  0
  7  8  1  0
  8  9  1  0
  9 10  1  0
 10 11  2  0
 11 12  1  0
 12 13  2  0
 13 14  1  0
 13 15  1  0
 15 16  1  0
 16 17  1  0
 17 18  1  0
  6 19  2  0
 19 20  1  0
 20 21  2  0
 21 22  1  0
 22  2  1  0
 21  4  1  0
 14 10  1  0
 18 12  1  0
M  END
>  <tags>  (11) 
openbind_xx01zvns2b_c1_knitwork_impure,fragmenstein_placed,openbind_xx01zvns2b_c1_scaffolds_chemok_bbok,BulkDock Fragalysis export,openbind_xx01zvns2b_c1_scaffolds

>  <placement_batch>  (11) 
openbind_xx01zvns2b_c1_knitwork_impure

>  <inspiration_score>  (11) 
None

>  <name>  (11) 
P53436

>  <HIPPO Pose ID>  (11) 
53436

>  <ref_pdb>  (11) 
Z0846a

>  <inchikey>  (11) 
KJFFAXCABFDIQL-UHFFFAOYSA-N

>  <alias>  (11) 
None

>  <ref_mols>  (11) 
Z3527a,Z4008a,Z3596a,Z3476a,Z0846a,Z3503a

>  <subsites>  (11) 
1 - Z4590/B/203/1

>  <distance_score>  (11) 
0.934573

>  <HIPPO Compound ID>  (11) 
59365

>  <smiles>  (11) 
Cc1nc2cc(CNCc3cc4c(s3)CCNC4)ccc2[nH]1

>  <energy_score>  (11) 
-33.316031

$$$$
P53566
     RDKit          3D

 10 11  0  0  0  0  0  0  0  0999 V2000
   -7.1626    5.9257  -11.7503 C   0  0  0  0  0  0  0  0  0  0  0  0
   -8.0649    4.8969  -11.6229 C   0  0  0  0  0  0  0  0  0  0  0  0
   -8.3197    4.4839  -12.9029 N   0  0  0  0  0  0  0  0  0  0  0  0
   -7.5728    5.2685  -13.7440 C   0  0  0  0  0  0  0  0  0  0  0  0
   -7.5882    5.1099  -15.2996 C   0  0  0  0  0  0  0  0  0  0  0  0
   -6.6568    5.7610  -16.1635 C   0  0  0  0  0  0  0  0  0  0  0  0
   -6.8918    5.4107  -17.4759 C   0  0  0  0  0  0  0  0  0  0  0  0
   -8.2382    4.3588  -17.5233 S   0  0  0  0  0  0  0  0  0  0  0  0
   -8.5051    4.3460  -15.8897 N   0  0  0  0  0  0  0  0  0  0  0  0
   -6.8501    6.1437  -13.0691 N   0  0  0  0  0  0  0  0  0  0  0  0
  1  2  2  0
  2  3  1  0
  3  4  1  0
  4  5  1  0
  5  6  1  0
  6  7  2  0
  7  8  1  0
  8  9  1  0
  4 10  2  0
 10  1  1  0
  9  5  2  0
M  END
>  <tags>  (12) 
openbind_xx01zvns2b_c1_knitwork_impure,BulkDock Fragalysis export,fragmenstein_placed,openbind_xx01zvns2b_c1_scaffolds

>  <placement_batch>  (12) 
openbind_xx01zvns2b_c1_knitwork_impure

>  <inspiration_score>  (12) 
None

>  <name>  (12) 
P53566

>  <HIPPO Pose ID>  (12) 
53566

>  <ref_pdb>  (12) 
Z1688a

>  <inchikey>  (12) 
MZLCRBBQISVYAT-UHFFFAOYSA-N

>  <alias>  (12) 
None

>  <ref_mols>  (12) 
Z0852a,Z0465a,Z1688a,Z0673a,Z0673b

>  <subsites>  (12) 
1 - Z4590/B/203/1

>  <distance_score>  (12) 
0.782519

>  <HIPPO Compound ID>  (12) 
59678

>  <smiles>  (12) 
c1c[nH]c(-c2ccsn2)n1

>  <energy_score>  (12) 
-19.620138

$$$$
P53689
     RDKit          3D

 13 14  0  0  0  0  0  0  0  0999 V2000
   -4.1681    2.6446  -13.0823 C   0  0  0  0  0  0  0  0  0  0  0  0
   -5.6473    2.3645  -13.2265 C   0  0  0  0  0  0  0  0  0  0  0  0
   -6.1657    1.4219  -12.7816 O   0  0  0  0  0  0  0  0  0  0  0  0
   -6.2373    3.5495  -14.0195 N   0  0  0  0  0  0  0  0  0  0  0  0
   -7.5672    3.7725  -14.5097 C   0  0  0  0  0  0  0  0  0  0  0  0
   -7.7206    4.8905  -15.5670 C   0  0  0  0  0  0  0  0  0  0  0  0
   -8.8691    4.5560  -16.5365 C   0  0  0  0  0  0  0  0  0  0  0  0
   -8.3208    4.7414  -17.9391 C   0  0  0  0  0  0  0  0  0  0  0  0
   -6.8194    4.6925  -17.7825 C   0  0  0  0  0  0  0  0  0  0  0  0
   -6.5071    5.1121  -16.4093 N   0  0  0  0  0  0  0  0  0  0  0  0
   -6.1707    6.5357  -16.3509 C   0  0  0  0  0  0  0  0  0  0  0  0
   -6.5932    6.9389  -14.9575 C   0  0  0  0  0  0  0  0  0  0  0  0
   -7.9172    6.2167  -14.8064 C   0  0  0  0  0  0  0  0  0  0  0  0
  1  2  1  0
  2  3  2  0
  2  4  1  0
  4  5  1  0
  5  6  1  0
  6  7  1  0
  7  8  1  0
  8  9  1  0
  9 10  1  0
 10 11  1  0
 11 12  1  0
 12 13  1  0
 10  6  1  0
 13  6  1  0
M  END
>  <tags>  (13) 
openbind_xx01zvns2b_c1_knitwork_impure,fragmenstein_placed,openbind_xx01zvns2b_c1_scaffolds_chemok_bbok,BulkDock Fragalysis export,openbind_xx01zvns2b_c1_scaffolds

>  <placement_batch>  (13) 
openbind_xx01zvns2b_c1_knitwork_impure

>  <inspiration_score>  (13) 
None

>  <name>  (13) 
P53689

>  <HIPPO Pose ID>  (13) 
53689

>  <ref_pdb>  (13) 
Z0719a

>  <inchikey>  (13) 
YQPPLHVZWAOLSQ-UHFFFAOYSA-N

>  <alias>  (13) 
None

>  <ref_mols>  (13) 
Z0827a,Z0719a,Z0990a,Z0819a

>  <subsites>  (13) 
1 - Z4590/B/203/1

>  <distance_score>  (13) 
0.909619

>  <HIPPO Compound ID>  (13) 
59954

>  <smiles>  (13) 
CC(=O)NCC12CCCN1CCC2

>  <energy_score>  (13) 
-1.455987

$$$$
P53709
     RDKit          3D

 12 13  0  0  0  0  0  0  0  0999 V2000
   -8.4288    4.5764  -16.0034 C   0  0  0  0  0  0  0  0  0  0  0  0
   -7.2799    5.0105  -16.4640 N   0  0  0  0  0  0  0  0  0  0  0  0
   -7.4132    5.0239  -17.8359 C   0  0  0  0  0  0  0  0  0  0  0  0
   -6.2768    5.5011  -18.7038 C   0  0  1  0  0  0  0  0  0  0  0  0
   -6.3471    7.0370  -18.8308 C   0  0  0  0  0  0  0  0  0  0  0  0
   -5.0309    7.7912  -18.9307 C   0  0  0  0  0  0  0  0  0  0  0  0
   -4.1480    7.3897  -20.1070 C   0  0  0  0  0  0  0  0  0  0  0  0
   -3.8522    5.9692  -20.2718 N   0  0  0  0  0  0  0  0  0  0  0  0
   -3.6813    5.2548  -19.0112 C   0  0  0  0  0  0  0  0  0  0  0  0
   -4.9272    5.0236  -18.1434 C   0  0  0  0  0  0  0  0  0  0  0  0
   -8.6861    4.6272  -18.1894 C   0  0  0  0  0  0  0  0  0  0  0  0
   -9.3323    4.3898  -17.0094 N   0  0  0  0  0  0  0  0  0  0  0  0
  1  2  2  0
  2  3  1  0
  4  3  1  1
  4  5  1  0
  5  6  1  0
  6  7  1  0
  7  8  1  0
  8  9  1  0
  9 10  1  0
  3 11  2  0
 11 12  1  0
 12  1  1  0
 10  4  1  0
M  END
>  <tags>  (14) 
openbind_xx01zvns2b_c1_knitwork_impure,fragmenstein_placed,openbind_xx01zvns2b_c1_scaffolds_chemok_bbok,BulkDock Fragalysis export,openbind_xx01zvns2b_c1_scaffolds

>  <placement_batch>  (14) 
openbind_xx01zvns2b_c1_knitwork_impure

>  <inspiration_score>  (14) 
None

>  <name>  (14) 
P53709

>  <HIPPO Pose ID>  (14) 
53709

>  <ref_pdb>  (14) 
Z0719a

>  <inchikey>  (14) 
PBAOHZYVIPVQLP-UHFFFAOYSA-N

>  <alias>  (14) 
None

>  <ref_mols>  (14) 
Z0827a,Z0719a,Z0990a,Z0819a

>  <subsites>  (14) 
1 - Z4590/B/203/1

>  <distance_score>  (14) 
0.845174

>  <HIPPO Compound ID>  (14) 
59996

>  <smiles>  (14) 
c1nc([C@H]2CCCNCC2)c[nH]1

>  <energy_score>  (14) 
-11.593367

$$$$
P53748
     RDKit          3D

 26 30  0  0  0  0  0  0  0  0999 V2000
   -2.5298    7.8745  -21.8688 C   0  0  0  0  0  0  0  0  0  0  0  0
   -3.8445    7.1172  -22.1218 C   0  0  1  0  0  0  0  0  0  0  0  0
   -4.5235    6.7757  -20.8056 C   0  0  0  0  0  0  0  0  0  0  0  0
   -4.4580    7.4865  -19.6947 N   0  0  0  0  0  0  0  0  0  0  0  0
   -5.0837    6.7831  -18.6662 C   0  0  0  0  0  0  0  0  0  0  0  0
   -5.1313    7.1589  -17.3120 C   0  0  0  0  0  0  0  0  0  0  0  0
   -5.8376    6.3732  -16.3917 C   0  0  0  0  0  0  0  0  0  0  0  0
   -6.5178    5.2335  -16.8044 C   0  0  0  0  0  0  0  0  0  0  0  0
   -6.4676    4.8259  -18.1355 C   0  0  0  0  0  0  0  0  0  0  0  0
   -5.7129    5.5941  -19.0337 C   0  0  0  0  0  0  0  0  0  0  0  0
   -5.3538    5.2773  -20.6631 S   0  0  0  0  0  0  0  0  0  0  0  0
   -4.7481    7.7677  -23.0885 N   0  0  0  0  0  0  0  0  0  0  0  0
   -4.4876    7.3463  -24.4861 C   0  0  0  0  0  0  0  0  0  0  0  0
   -4.3333    8.5126  -25.4916 C   0  0  0  0  0  0  0  0  0  0  0  0
   -5.5019    9.4205  -25.4261 N   0  0  0  0  0  0  0  0  0  0  0  0
   -6.5268    9.0321  -26.2407 C   0  0  0  0  0  0  0  0  0  0  0  0
   -6.5880    7.9625  -26.9984 N   0  0  0  0  0  0  0  0  0  0  0  0
   -7.8783    7.8979  -27.4512 C   0  0  0  0  0  0  0  0  0  0  0  0
   -8.5110    6.8982  -28.2005 C   0  0  0  0  0  0  0  0  0  0  0  0
   -9.8666    7.0496  -28.5044 C   0  0  0  0  0  0  0  0  0  0  0  0
  -10.5750    8.1697  -28.0652 C   0  0  0  0  0  0  0  0  0  0  0  0
   -9.9582    9.1859  -27.3236 C   0  0  0  0  0  0  0  0  0  0  0  0
   -8.6027    9.0119  -27.0412 C   0  0  0  0  0  0  0  0  0  0  0  0
   -7.6874    9.7574  -26.3424 N   0  0  0  0  0  0  0  0  0  0  0  0
   -5.8711    9.7676  -24.0290 C   0  0  0  0  0  0  0  0  0  0  0  0
   -4.8883    9.2228  -22.9674 C   0  0  0  0  0  0  0  0  0  0  0  0
  2  1  1  1
  2  3  1  0
  3  4  2  0
  4  5  1  0
  5  6  2  0
  6  7  1  0
  7  8  2  0
  8  9  1  0
  9 10  2  0
 10 11  1  0
  2 12  1  0
 12 13  1  0
 13 14  1  0
 14 15  1  0
 15 16  1  0
 16 17  2  0
 17 18  1  0
 18 19  2  0
 19 20  1  0
 20 21  2  0
 21 22  1  0
 22 23  2  0
 23 24  1  0
 15 25  1  0
 25 26  1  0
 11  3  1  0
 26 12  1  0
 10  5  1  0
 24 16  1  0
 23 18  1  0
M  END
>  <tags>  (15) 
openbind_xx01zvns2b_c1_knitwork_impure,fragmenstein_placed,openbind_xx01zvns2b_c1_scaffolds_chemok_bbok,BulkDock Fragalysis export,openbind_xx01zvns2b_c1_scaffolds

>  <placement_batch>  (15) 
openbind_xx01zvns2b_c1_knitwork_impure

>  <inspiration_score>  (15) 
None

>  <name>  (15) 
P53748

>  <HIPPO Pose ID>  (15) 
53748

>  <ref_pdb>  (15) 
Z0846a

>  <inchikey>  (15) 
FTTCIJMUMURINR-UHFFFAOYSA-N

>  <alias>  (15) 
None

>  <ref_mols>  (15) 
Z0846a,Z1688a,Z0773a

>  <subsites>  (15) 
1 - Z4590/B/203/1

>  <distance_score>  (15) 
0.955003

>  <HIPPO Compound ID>  (15) 
12632

>  <smiles>  (15) 
C[C@@H](c1nc2ccccc2s1)N1CCN(c2nc3ccccc3[nH]2)CC1

>  <energy_score>  (15) 
-84.354529

$$$$
P53970
     RDKit          3D

 19 20  0  0  0  0  0  0  0  0999 V2000
   -9.0735    5.0025   -6.3801 C   0  0  0  0  0  0  0  0  0  0  0  0
   -8.3460    6.0781   -7.1918 C   0  0  0  0  0  0  0  0  0  0  0  0
   -7.7212    7.0920   -6.2273 C   0  0  0  0  0  0  0  0  0  0  0  0
   -7.2613    5.4773   -8.0970 C   0  0  0  0  0  0  0  0  0  0  0  0
   -7.7426    4.8841   -9.3802 C   0  0  0  0  0  0  0  0  0  0  0  0
   -7.4977    5.3682  -10.6862 C   0  0  0  0  0  0  0  0  0  0  0  0
   -7.9515    4.3814  -11.5221 C   0  0  0  0  0  0  0  0  0  0  0  0
   -7.8777    4.2812  -12.8770 N   0  0  0  0  0  0  0  0  0  0  0  0
   -7.2748    5.2621  -13.9355 C   0  0  0  0  0  0  0  0  0  0  0  0
   -6.8229    6.3341  -13.8049 O   0  0  0  0  0  0  0  0  0  0  0  0
   -7.4533    4.5826  -15.2997 C   0  0  0  0  0  0  0  0  0  0  0  0
   -6.6438    5.2510  -16.4193 C   0  0  0  0  0  0  0  0  0  0  0  0
   -6.9515    4.7358  -17.8268 C   0  0  0  0  0  0  0  0  0  0  0  0
   -8.4128    4.4398  -18.0573 C   0  0  0  0  0  0  0  0  0  0  0  0
   -8.9647    4.5992  -19.1386 O   0  0  0  0  0  0  0  0  0  0  0  0
   -9.1762    3.8106  -16.9396 C   0  0  0  0  0  0  0  0  0  0  0  0
   -8.9331    4.5555  -15.6506 C   0  0  0  0  0  0  0  0  0  0  0  0
   -8.5042    3.4277  -10.7103 N   0  0  0  0  0  0  0  0  0  0  0  0
   -8.3939    3.7167   -9.4028 N   0  0  0  0  0  0  0  0  0  0  0  0
  1  2  1  0
  2  3  1  0
  2  4  1  0
  4  5  1  0
  5  6  1  0
  6  7  2  0
  7  8  1  0
  8  9  1  0
  9 10  2  0
  9 11  1  0
 11 12  1  0
 12 13  1  0
 13 14  1  0
 14 15  2  0
 14 16  1  0
 16 17  1  0
  7 18  1  0
 18 19  1  0
 19  5  2  0
 17 11  1  0
M  END
>  <tags>  (16) 
openbind_xx01zvns2b_c1_knitwork_impure,BulkDock Fragalysis export,fragmenstein_placed,openbind_xx01zvns2b_c1_scaffolds

>  <placement_batch>  (16) 
openbind_xx01zvns2b_c1_knitwork_impure

>  <inspiration_score>  (16) 
None

>  <name>  (16) 
P53970

>  <HIPPO Pose ID>  (16) 
53970

>  <ref_pdb>  (16) 
Z1342a

>  <inchikey>  (16) 
SODBMUXNXHHPIC-UHFFFAOYSA-N

>  <alias>  (16) 
None

>  <ref_mols>  (16) 
Z1342a,Z0465a

>  <subsites>  (16) 
1 - Z4590/B/203/1

>  <distance_score>  (16) 
0.973171

>  <HIPPO Compound ID>  (16) 
60542

>  <smiles>  (16) 
CC(C)Cc1cc(NC(=O)C2CCC(=O)CC2)[nH]n1

>  <energy_score>  (16) 
-9.865337

$$$$
P54116
     RDKit          3D

 18 20  0  0  0  0  0  0  0  0999 V2000
   -6.1144    4.6561  -14.0663 C   0  0  0  0  0  0  0  0  0  0  0  0
   -7.4320    5.1769  -14.6539 C   0  0  2  0  0  0  0  0  0  0  0  0
   -8.5233    4.7281  -13.7772 N   0  0  0  0  0  0  0  0  0  0  0  0
   -8.4962    5.1286  -12.4892 C   0  0  0  0  0  0  0  0  0  0  0  0
   -8.3071    6.3687  -12.1249 N   0  0  0  0  0  0  0  0  0  0  0  0
   -8.2229    6.2721  -10.6546 C   0  0  0  0  0  0  0  0  0  0  0  0
   -7.9912    4.7875  -10.3934 C   0  0  0  0  0  0  0  0  0  0  0  0
   -8.3095    4.1533   -9.0277 C   0  0  0  0  0  0  0  0  0  0  0  0
   -6.8631    4.5350   -8.6365 C   0  0  0  0  0  0  0  0  0  0  0  0
   -6.5098    4.3955  -10.1311 C   0  0  0  0  0  0  0  0  0  0  0  0
   -8.5357    4.1525  -11.5447 N   0  0  0  0  0  0  0  0  0  0  0  0
   -7.6598    4.7568  -16.1025 C   0  0  0  0  0  0  0  0  0  0  0  0
   -8.7697    4.0051  -16.3658 N   0  0  0  0  0  0  0  0  0  0  0  0
   -9.0629    3.7492  -17.6593 C   0  0  0  0  0  0  0  0  0  0  0  0
   -8.2703    4.1241  -18.7201 C   0  0  0  0  0  0  0  0  0  0  0  0
   -7.1260    4.8547  -18.4508 C   0  0  0  0  0  0  0  0  0  0  0  0
   -6.8254    5.2037  -17.1378 C   0  0  0  0  0  0  0  0  0  0  0  0
   -5.4777    6.2539  -16.9134 Cl  0  0  0  0  0  0  0  0  0  0  0  0
  2  1  1  1
  2  3  1  0
  3  4  1  0
  4  5  2  0
  5  6  1  0
  6  7  1  0
  7  8  1  0
  8  9  1  0
  9 10  1  0
  7 11  1  0
  2 12  1  0
 12 13  2  0
 13 14  1  0
 14 15  2  0
 15 16  1  0
 16 17  2  0
 17 18  1  0
 11  4  1  0
 17 12  1  0
 10  7  1  0
M  END
>  <tags>  (17) 
openbind_xx01zvns2b_c1_knitwork_impure,fragmenstein_placed,openbind_xx01zvns2b_c1_scaffolds_chemok_bbok,BulkDock Fragalysis export,openbind_xx01zvns2b_c1_scaffolds

>  <placement_batch>  (17) 
openbind_xx01zvns2b_c1_knitwork_impure

>  <inspiration_score>  (17) 
None

>  <name>  (17) 
P54116

>  <HIPPO Pose ID>  (17) 
54116

>  <ref_pdb>  (17) 
Z1597a

>  <inchikey>  (17) 
KSCAKDLPFKXELY-UHFFFAOYSA-N

>  <alias>  (17) 
None

>  <ref_mols>  (17) 
Z0844a,Z1597a

>  <subsites>  (17) 
1 - Z4590/B/203/1

>  <distance_score>  (17) 
0.968113

>  <HIPPO Compound ID>  (17) 
60852

>  <smiles>  (17) 
C[C@H](NC1=NCC2(CCC2)N1)c1ncccc1Cl

>  <energy_score>  (17) 
-39.933616

$$$$
P54124
     RDKit          3D

 15 17  0  0  0  0  0  0  0  0999 V2000
   -7.0076    5.5945  -13.6645 N   0  0  0  0  0  0  0  0  0  0  0  0
   -7.3011    5.2400  -14.7309 C   0  0  0  0  0  0  0  0  0  0  0  0
   -7.6449    4.8362  -16.0579 C   0  0  0  0  0  0  0  0  0  0  0  0
   -8.7955    4.0863  -16.2541 C   0  0  0  0  0  0  0  0  0  0  0  0
   -9.2484    3.6768  -17.4604 N   0  0  0  0  0  0  0  0  0  0  0  0
   -8.5107    4.0391  -18.5236 C   0  0  0  0  0  0  0  0  0  0  0  0
   -7.3443    4.7801  -18.4328 C   0  0  0  0  0  0  0  0  0  0  0  0
   -6.8907    5.2161  -17.1825 C   0  0  0  0  0  0  0  0  0  0  0  0
   -5.7332    6.0341  -17.0374 N   0  0  0  0  0  0  0  0  0  0  0  0
   -5.2737    6.8549  -18.1399 N   0  0  0  0  0  0  0  0  0  0  0  0
   -3.8167    6.5459  -18.1744 C   0  0  1  0  0  0  0  0  0  0  0  0
   -3.1539    7.1626  -16.9335 C   0  0  0  0  0  0  0  0  0  0  0  0
   -3.6810    6.2885  -15.7836 C   0  0  0  0  0  0  0  0  0  0  0  0
   -4.5632    5.2796  -16.5304 C   0  0  2  0  0  0  0  0  0  0  0  0
   -3.7826    5.0677  -17.8269 C   0  0  0  0  0  0  0  0  0  0  0  0
  1  2  3  0
  2  3  1  0
  3  4  2  0
  4  5  1  0
  5  6  2  0
  6  7  1  0
  7  8  2  0
  8  9  1  0
  9 10  1  0
 10 11  1  0
 11 12  1  1
 12 13  1  0
 14 13  1  1
 14 15  1  0
  8  3  1  0
 14  9  1  0
 15 11  1  0
M  END
>  <tags>  (18) 
openbind_xx01zvns2b_c1_knitwork_impure,BulkDock Fragalysis export,fragmenstein_placed,openbind_xx01zvns2b_c1_scaffolds

>  <placement_batch>  (18) 
openbind_xx01zvns2b_c1_knitwork_impure

>  <inspiration_score>  (18) 
None

>  <name>  (18) 
P54124

>  <HIPPO Pose ID>  (18) 
54124

>  <ref_pdb>  (18) 
Z1597a

>  <inchikey>  (18) 
SGNYMAWTHIPLLQ-UHFFFAOYSA-N

>  <alias>  (18) 
None

>  <ref_mols>  (18) 
Z0844a,Z1597a

>  <subsites>  (18) 
1 - Z4590/B/203/1

>  <distance_score>  (18) 
0.877194

>  <HIPPO Compound ID>  (18) 
60866

>  <smiles>  (18) 
N#Cc1cnccc1N1N[C@H]2CC[C@@H]1C2

>  <energy_score>  (18) 
-20.424324

$$$$
P54178
     RDKit          3D

 13 14  0  0  0  0  0  0  0  0999 V2000
   -4.8026    5.7675  -12.9391 C   0  0  0  0  0  0  0  0  0  0  0  0
   -5.1375    5.4613  -14.4004 C   0  0  1  0  0  0  0  0  0  0  0  0
   -4.2856    4.3433  -14.8151 N   0  0  0  0  0  0  0  0  0  0  0  0
   -6.6449    5.1633  -14.5589 C   0  0  0  0  0  0  0  0  0  0  0  0
   -7.2488    4.8471  -15.9233 C   0  0  0  0  0  0  0  0  0  0  0  0
   -8.6055    4.4328  -15.9159 C   0  0  0  0  0  0  0  0  0  0  0  0
   -9.3148    4.1344  -17.0751 C   0  0  0  0  0  0  0  0  0  0  0  0
   -8.6809    4.1823  -18.3070 C   0  0  0  0  0  0  0  0  0  0  0  0
   -7.3313    4.5654  -18.3735 C   0  0  0  0  0  0  0  0  0  0  0  0
   -6.5941    4.5955  -19.5367 N   0  0  0  0  0  0  0  0  0  0  0  0
   -5.4127    5.0972  -19.3035 C   0  0  0  0  0  0  0  0  0  0  0  0
   -5.0834    5.5006  -17.6916 S   0  0  0  0  0  0  0  0  0  0  0  0
   -6.6504    4.9400  -17.2044 C   0  0  0  0  0  0  0  0  0  0  0  0
  2  1  1  1
  2  3  1  0
  2  4  1  0
  4  5  1  0
  5  6  2  0
  6  7  1  0
  7  8  2  0
  8  9  1  0
  9 10  1  0
 10 11  2  0
 11 12  1  0
 12 13  1  0
 13  5  1  0
 13  9  2  0
M  END
>  <tags>  (19) 
openbind_xx01zvns2b_c1_knitwork_impure,fragmenstein_placed,openbind_xx01zvns2b_c1_scaffolds_chemok_bbok,BulkDock Fragalysis export,openbind_xx01zvns2b_c1_scaffolds

>  <placement_batch>  (19) 
openbind_xx01zvns2b_c1_knitwork_impure

>  <inspiration_score>  (19) 
None

>  <name>  (19) 
P54178

>  <HIPPO Pose ID>  (19) 
54178

>  <ref_pdb>  (19) 
Z0089a

>  <inchikey>  (19) 
DNGKQOOCRXCIGL-UHFFFAOYSA-N

>  <alias>  (19) 
None

>  <ref_mols>  (19) 
Z1716a,Z0089a

>  <subsites>  (19) 
1 - Z4590/B/203/1

>  <distance_score>  (19) 
0.760656

>  <HIPPO Compound ID>  (19) 
60990

>  <smiles>  (19) 
C[C@@H](N)Cc1cccc2ncsc12

>  <energy_score>  (19) 
-65.671427

$$$$
P54181
     RDKit          3D

 13 14  0  0  0  0  0  0  0  0999 V2000
   -4.8420    5.7855  -13.0553 C   0  0  0  0  0  0  0  0  0  0  0  0
   -5.2067    5.5193  -14.5176 C   0  0  1  0  0  0  0  0  0  0  0  0
   -4.0920    4.7598  -15.0966 N   0  0  0  0  0  0  0  0  0  0  0  0
   -6.5635    4.7808  -14.6080 C   0  0  0  0  0  0  0  0  0  0  0  0
   -7.2458    4.6698  -15.9552 C   0  0  0  0  0  0  0  0  0  0  0  0
   -8.6231    4.3439  -15.9994 C   0  0  0  0  0  0  0  0  0  0  0  0
   -9.3300    4.1697  -17.1985 C   0  0  0  0  0  0  0  0  0  0  0  0
   -8.6871    4.2819  -18.4317 C   0  0  0  0  0  0  0  0  0  0  0  0
   -7.3219    4.5778  -18.4277 C   0  0  0  0  0  0  0  0  0  0  0  0
   -6.4455    4.7175  -19.4673 N   0  0  0  0  0  0  0  0  0  0  0  0
   -5.3129    5.0056  -18.8815 C   0  0  0  0  0  0  0  0  0  0  0  0
   -5.3579    5.0609  -17.5243 O   0  0  0  0  0  0  0  0  0  0  0  0
   -6.6625    4.7708  -17.2211 C   0  0  0  0  0  0  0  0  0  0  0  0
  2  1  1  1
  2  3  1  0
  2  4  1  0
  4  5  1  0
  5  6  2  0
  6  7  1  0
  7  8  2  0
  8  9  1  0
  9 10  1  0
 10 11  2  0
 11 12  1  0
 12 13  1  0
 13  5  1  0
 13  9  2  0
M  END
>  <tags>  (20) 
openbind_xx01zvns2b_c1_knitwork_impure,fragmenstein_placed,openbind_xx01zvns2b_c1_scaffolds_chemok_bbok,BulkDock Fragalysis export,openbind_xx01zvns2b_c1_scaffolds

>  <placement_batch>  (20) 
openbind_xx01zvns2b_c1_knitwork_impure

>  <inspiration_score>  (20) 
None

>  <name>  (20) 
P54181

>  <HIPPO Pose ID>  (20) 
54181

>  <ref_pdb>  (20) 
Z0089a

>  <inchikey>  (20) 
LZUNGFWRGPNQMU-UHFFFAOYSA-N

>  <alias>  (20) 
None

>  <ref_mols>  (20) 
Z1716a,Z0089a

>  <subsites>  (20) 
1 - Z4590/B/203/1

>  <distance_score>  (20) 
0.770334

>  <HIPPO Compound ID>  (20) 
60996

>  <smiles>  (20) 
C[C@@H](N)Cc1cccc2ncoc12

>  <energy_score>  (20) 
-19.092094

$$$$
P54272
     RDKit          3D

 14 15  0  0  0  0  0  0  0  0999 V2000
   -1.9701    4.1655  -19.4897 C   0  0  0  0  0  0  0  0  0  0  0  0
   -2.5383    5.5305  -19.1320 C   0  0  0  0  0  0  0  0  0  0  0  0
   -1.8380    6.6385  -19.9089 C   0  0  0  0  0  0  0  0  0  0  0  0
   -3.9561    5.6045  -19.4327 N   0  0  0  0  0  0  0  0  0  0  0  0
   -4.9266    5.3390  -18.4919 C   0  0  0  0  0  0  0  0  0  0  0  0
   -4.7810    5.5397  -17.1223 C   0  0  0  0  0  0  0  0  0  0  0  0
   -5.7530    5.2995  -16.2214 N   0  0  0  0  0  0  0  0  0  0  0  0
   -6.9199    4.8533  -16.7387 C   0  0  0  0  0  0  0  0  0  0  0  0
   -7.1124    4.6995  -18.1102 C   0  0  0  0  0  0  0  0  0  0  0  0
   -6.1072    4.9344  -18.9922 N   0  0  0  0  0  0  0  0  0  0  0  0
   -8.4644    4.3907  -18.6845 C   0  0  0  0  0  0  0  0  0  0  0  0
   -9.4593    3.8146  -17.6910 C   0  0  0  0  0  0  0  0  0  0  0  0
   -9.3517    4.4108  -16.3000 C   0  0  0  0  0  0  0  0  0  0  0  0
   -7.9488    4.4430  -15.7410 C   0  0  0  0  0  0  0  0  0  0  0  0
  1  2  1  0
  2  3  1  0
  2  4  1  0
  4  5  1  0
  5  6  2  0
  6  7  1  0
  7  8  2  0
  8  9  1  0
  9 10  2  0
  9 11  1  0
 11 12  1  0
 12 13  1  0
 13 14  1  0
 10  5  1  0
 14  8  1  0
M  END
>  <tags>  (21) 
openbind_xx01zvns2b_c1_knitwork_impure,BulkDock Fragalysis export,fragmenstein_placed,openbind_xx01zvns2b_c1_scaffolds

>  <placement_batch>  (21) 
openbind_xx01zvns2b_c1_knitwork_impure

>  <inspiration_score>  (21) 
None

>  <name>  (21) 
P54272

>  <HIPPO Pose ID>  (21) 
54272

>  <ref_pdb>  (21) 
Z0089a

>  <inchikey>  (21) 
NXJYTRXEEROFOS-UHFFFAOYSA-N

>  <alias>  (21) 
None

>  <ref_mols>  (21) 
Z0875a,Z0089a

>  <subsites>  (21) 
1 - Z4590/B/203/1

>  <distance_score>  (21) 
0.787497

>  <HIPPO Compound ID>  (21) 
61227

>  <smiles>  (21) 
CC(C)Nc1cnc2c(n1)CCCC2

>  <energy_score>  (21) 
-34.27857

$$$$
P54274
     RDKit          3D

 14 15  0  0  0  0  0  0  0  0999 V2000
   -2.4349    4.9119  -19.0222 C   0  0  0  0  0  0  0  0  0  0  0  0
   -3.5927    5.8946  -19.2368 C   0  0  0  0  0  0  0  0  0  0  0  0
   -3.1142    7.3282  -18.9344 C   0  0  0  0  0  0  0  0  0  0  0  0
   -3.9198    5.8669  -20.6750 N   0  0  0  0  0  0  0  0  0  0  0  0
   -4.7802    5.5173  -18.3466 C   0  0  0  0  0  0  0  0  0  0  0  0
   -4.6560    5.5709  -16.9621 C   0  0  0  0  0  0  0  0  0  0  0  0
   -5.6549    5.2583  -16.1201 N   0  0  0  0  0  0  0  0  0  0  0  0
   -6.8158    4.8620  -16.6962 C   0  0  0  0  0  0  0  0  0  0  0  0
   -6.9750    4.8016  -18.0799 C   0  0  0  0  0  0  0  0  0  0  0  0
   -5.9527    5.1313  -18.9226 N   0  0  0  0  0  0  0  0  0  0  0  0
   -8.3099    4.4833  -18.6946 C   0  0  0  0  0  0  0  0  0  0  0  0
   -9.3488    3.8898  -17.7497 C   0  0  0  0  0  0  0  0  0  0  0  0
   -9.2707    4.4197  -16.3297 C   0  0  0  0  0  0  0  0  0  0  0  0
   -7.8762    4.4128  -15.7455 C   0  0  0  0  0  0  0  0  0  0  0  0
  1  2  1  0
  2  3  1  0
  2  4  1  0
  2  5  1  0
  5  6  2  0
  6  7  1  0
  7  8  2  0
  8  9  1  0
  9 10  2  0
  9 11  1  0
 11 12  1  0
 12 13  1  0
 13 14  1  0
 10  5  1  0
 14  8  1  0
M  END
>  <tags>  (22) 
openbind_xx01zvns2b_c1_knitwork_impure,BulkDock Fragalysis export,fragmenstein_placed,openbind_xx01zvns2b_c1_scaffolds

>  <placement_batch>  (22) 
openbind_xx01zvns2b_c1_knitwork_impure

>  <inspiration_score>  (22) 
None

>  <name>  (22) 
P54274

>  <HIPPO Pose ID>  (22) 
54274

>  <ref_pdb>  (22) 
Z0089a

>  <inchikey>  (22) 
UBAXPSGXVCWSHK-UHFFFAOYSA-N

>  <alias>  (22) 
None

>  <ref_mols>  (22) 
Z0875a,Z0089a

>  <subsites>  (22) 
1 - Z4590/B/203/1

>  <distance_score>  (22) 
0.988386

>  <HIPPO Compound ID>  (22) 
61232

>  <smiles>  (22) 
CC(C)(N)c1cnc2c(n1)CCCC2

>  <energy_score>  (22) 
-30.586462

$$$$
P54275
     RDKit          3D

 10 10  0  0  0  0  0  0  0  0999 V2000
   -1.6091    4.5705  -19.6554 C   0  0  0  0  0  0  0  0  0  0  0  0
   -2.6363    5.2586  -18.7562 C   0  0  1  0  0  0  0  0  0  0  0  0
   -2.1325    6.5908  -18.3905 N   0  0  0  0  0  0  0  0  0  0  0  0
   -3.9961    5.3812  -19.4660 C   0  0  0  0  0  0  0  0  0  0  0  0
   -5.2028    5.2227  -18.5864 C   0  0  0  0  0  0  0  0  0  0  0  0
   -5.2782    5.7333  -17.2939 C   0  0  0  0  0  0  0  0  0  0  0  0
   -6.3780    5.6050  -16.5147 N   0  0  0  0  0  0  0  0  0  0  0  0
   -7.4110    4.9412  -17.0845 C   0  0  0  0  0  0  0  0  0  0  0  0
   -7.3635    4.4637  -18.3795 C   0  0  0  0  0  0  0  0  0  0  0  0
   -6.2594    4.5846  -19.1451 N   0  0  0  0  0  0  0  0  0  0  0  0
  2  1  1  6
  2  3  1  0
  2  4  1  0
  4  5  1  0
  5  6  2  0
  6  7  1  0
  7  8  2  0
  8  9  1  0
  9 10  2  0
 10  5  1  0
M  END
>  <tags>  (23) 
openbind_xx01zvns2b_c1_knitwork_impure,fragmenstein_placed,openbind_xx01zvns2b_c1_scaffolds_chemok_bbok,BulkDock Fragalysis export,openbind_xx01zvns2b_c1_scaffolds

>  <placement_batch>  (23) 
openbind_xx01zvns2b_c1_knitwork_impure

>  <inspiration_score>  (23) 
None

>  <name>  (23) 
P54275

>  <HIPPO Pose ID>  (23) 
54275

>  <ref_pdb>  (23) 
Z0089a

>  <inchikey>  (23) 
GDVPKJFCQHWMMZ-UHFFFAOYSA-N

>  <alias>  (23) 
None

>  <ref_mols>  (23) 
Z0875a,Z0089a

>  <subsites>  (23) 
1 - Z4590/B/203/1

>  <distance_score>  (23) 
0.69444

>  <HIPPO Compound ID>  (23) 
61260

>  <smiles>  (23) 
C[C@@H](N)Cc1cnccn1

>  <energy_score>  (23) 
-13.033421

$$$$
P54276
     RDKit          3D

 13 14  0  0  0  0  0  0  0  0999 V2000
   -1.6895    4.4104  -19.6111 C   0  0  0  0  0  0  0  0  0  0  0  0
   -2.6534    5.3758  -18.9293 C   0  0  0  0  0  0  0  0  0  0  0  0
   -2.3794    6.8139  -19.3506 C   0  0  0  0  0  0  0  0  0  0  0  0
   -4.0067    5.0160  -19.2802 N   0  0  0  0  0  0  0  0  0  0  0  0
   -5.0955    5.0219  -18.4500 C   0  0  0  0  0  0  0  0  0  0  0  0
   -5.0643    5.2387  -17.0613 C   0  0  0  0  0  0  0  0  0  0  0  0
   -6.1511    5.1842  -16.2475 N   0  0  0  0  0  0  0  0  0  0  0  0
   -7.2743    4.8464  -16.8974 C   0  0  0  0  0  0  0  0  0  0  0  0
   -7.3327    4.6554  -18.2677 C   0  0  0  0  0  0  0  0  0  0  0  0
   -6.2603    4.7494  -19.0716 N   0  0  0  0  0  0  0  0  0  0  0  0
   -8.7256    4.3551  -18.7202 C   0  0  0  0  0  0  0  0  0  0  0  0
   -9.4035    3.9863  -17.3977 C   0  0  0  0  0  0  0  0  0  0  0  0
   -8.6034    4.6217  -16.2493 C   0  0  0  0  0  0  0  0  0  0  0  0
  1  2  1  0
  2  3  1  0
  2  4  1  0
  4  5  1  0
  5  6  2  0
  6  7  1  0
  7  8  2  0
  8  9  1  0
  9 10  2  0
  9 11  1  0
 11 12  1  0
 12 13  1  0
 10  5  1  0
 13  8  1  0
M  END
>  <tags>  (24) 
openbind_xx01zvns2b_c1_knitwork_impure,fragmenstein_placed,openbind_xx01zvns2b_c1_scaffolds_chemok_bbok,BulkDock Fragalysis export,openbind_xx01zvns2b_c1_scaffolds

>  <placement_batch>  (24) 
openbind_xx01zvns2b_c1_knitwork_impure

>  <inspiration_score>  (24) 
None

>  <name>  (24) 
P54276

>  <HIPPO Pose ID>  (24) 
54276

>  <ref_pdb>  (24) 
Z0089a

>  <inchikey>  (24) 
URTUUZRLNJDJHP-UHFFFAOYSA-N

>  <alias>  (24) 
None

>  <ref_mols>  (24) 
Z0875a,Z0089a

>  <subsites>  (24) 
1 - Z4590/B/203/1

>  <distance_score>  (24) 
0.845578

>  <HIPPO Compound ID>  (24) 
61261

>  <smiles>  (24) 
CC(C)Nc1cnc2c(n1)CCC2

>  <energy_score>  (24) 
-35.175654

$$$$
P54277
     RDKit          3D

 10 10  0  0  0  0  0  0  0  0999 V2000
   -1.9992    4.2156  -19.4029 C   0  0  0  0  0  0  0  0  0  0  0  0
   -2.6496    5.5121  -18.9398 C   0  0  0  0  0  0  0  0  0  0  0  0
   -1.9410    6.7181  -19.5486 C   0  0  0  0  0  0  0  0  0  0  0  0
   -4.0409    5.5636  -19.3451 N   0  0  0  0  0  0  0  0  0  0  0  0
   -5.0862    5.2340  -18.5150 C   0  0  0  0  0  0  0  0  0  0  0  0
   -5.1106    5.4082  -17.1319 C   0  0  0  0  0  0  0  0  0  0  0  0
   -6.1870    5.1323  -16.3568 N   0  0  0  0  0  0  0  0  0  0  0  0
   -7.2658    4.6723  -17.0261 C   0  0  0  0  0  0  0  0  0  0  0  0
   -7.2669    4.5158  -18.3979 C   0  0  0  0  0  0  0  0  0  0  0  0
   -6.1792    4.7832  -19.1541 N   0  0  0  0  0  0  0  0  0  0  0  0
  1  2  1  0
  2  3  1  0
  2  4  1  0
  4  5  1  0
  5  6  2  0
  6  7  1  0
  7  8  2  0
  8  9  1  0
  9 10  2  0
 10  5  1  0
M  END
>  <tags>  (25) 
openbind_xx01zvns2b_c1_knitwork_impure,fragmenstein_placed,openbind_xx01zvns2b_c1_scaffolds_chemok_bbok,BulkDock Fragalysis export,openbind_xx01zvns2b_c1_scaffolds

>  <placement_batch>  (25) 
openbind_xx01zvns2b_c1_knitwork_impure

>  <inspiration_score>  (25) 
None

>  <name>  (25) 
P54277

>  <HIPPO Pose ID>  (25) 
54277

>  <ref_pdb>  (25) 
Z0089a

>  <inchikey>  (25) 
NFFXHWPBOGQOAI-UHFFFAOYSA-N

>  <alias>  (25) 
None

>  <ref_mols>  (25) 
Z0875a,Z0089a

>  <subsites>  (25) 
1 - Z4590/B/203/1

>  <distance_score>  (25) 
0.674971

>  <HIPPO Compound ID>  (25) 
61266

>  <smiles>  (25) 
CC(C)Nc1cnccn1

>  <energy_score>  (25) 
-32.980417

$$$$
P54390
     RDKit          3D

 11 12  0  0  0  0  0  0  0  0999 V2000
   -7.7099    3.9179  -19.3213 N   0  0  0  0  0  0  0  0  0  0  0  0
   -7.7202    4.2934  -17.9769 C   0  0  0  0  0  0  0  0  0  0  0  0
   -8.8032    4.0308  -17.1368 C   0  0  0  0  0  0  0  0  0  0  0  0
   -8.7310    4.3010  -15.7538 C   0  0  0  0  0  0  0  0  0  0  0  0
   -7.5609    4.8031  -15.1744 C   0  0  0  0  0  0  0  0  0  0  0  0
   -6.4779    5.0213  -16.0024 C   0  0  0  0  0  0  0  0  0  0  0  0
   -6.5743    4.7701  -17.3681 C   0  0  0  0  0  0  0  0  0  0  0  0
   -5.3439    4.9774  -17.9762 N   0  0  0  0  0  0  0  0  0  0  0  0
   -4.3767    5.3095  -17.0443 C   0  0  0  0  0  0  0  0  0  0  0  0
   -3.1905    5.4785  -17.2773 O   0  0  0  0  0  0  0  0  0  0  0  0
   -5.0720    5.4278  -15.6790 C   0  0  0  0  0  0  0  0  0  0  0  0
  1  2  1  0
  2  3  2  0
  3  4  1  0
  4  5  2  0
  5  6  1  0
  6  7  2  0
  7  8  1  0
  8  9  1  0
  9 10  2  0
  9 11  1  0
  7  2  1  0
 11  6  1  0
M  END
>  <tags>  (26) 
openbind_xx01zvns2b_c1_knitwork_impure,BulkDock Fragalysis export,fragmenstein_placed,openbind_xx01zvns2b_c1_scaffolds

>  <placement_batch>  (26) 
openbind_xx01zvns2b_c1_knitwork_impure

>  <inspiration_score>  (26) 
None

>  <name>  (26) 
P54390

>  <HIPPO Pose ID>  (26) 
54390

>  <ref_pdb>  (26) 
Z3596a

>  <inchikey>  (26) 
RKPBTSNUXKVZPG-UHFFFAOYSA-N

>  <alias>  (26) 
None

>  <ref_mols>  (26) 
Z3596a,Z0089a

>  <subsites>  (26) 
1 - Z4590/B/203/1

>  <distance_score>  (26) 
0.701996

>  <HIPPO Compound ID>  (26) 
61429

>  <smiles>  (26) 
Nc1cccc2c1NC(=O)C2

>  <energy_score>  (26) 
-14.098939

$$$$
P54449
     RDKit          3D

 17 18  0  0  0  0  0  0  0  0999 V2000
   -6.1239    5.6384  -12.8112 C   0  0  0  0  0  0  0  0  0  0  0  0
   -7.0643    4.6329  -13.2857 N   0  0  0  0  0  0  0  0  0  0  0  0
   -8.3017    4.5839  -12.4808 C   0  0  0  0  0  0  0  0  0  0  0  0
   -8.2107    4.3334  -10.9934 C   0  0  0  0  0  0  0  0  0  0  0  0
   -8.0541    5.4205  -10.1010 C   0  0  0  0  0  0  0  0  0  0  0  0
   -8.1892    5.2548   -8.7201 C   0  0  0  0  0  0  0  0  0  0  0  0
   -8.5171    3.9995   -8.2481 C   0  0  0  0  0  0  0  0  0  0  0  0
   -8.6389    2.9144   -9.1116 C   0  0  0  0  0  0  0  0  0  0  0  0
   -8.4606    3.0529  -10.4779 C   0  0  0  0  0  0  0  0  0  0  0  0
   -9.0027    1.7032   -8.3174 C   0  0  0  0  0  0  0  0  0  0  0  0
   -9.4803    2.2328   -7.0108 N   0  0  0  0  0  0  0  0  0  0  0  0
   -8.8183    3.5472   -6.8584 C   0  0  0  0  0  0  0  0  0  0  0  0
   -7.4801    4.8728  -14.7041 C   0  0  0  0  0  0  0  0  0  0  0  0
   -6.5146    5.2921  -15.8305 C   0  0  0  0  0  0  0  0  0  0  0  0
   -5.6366    4.3518  -16.1961 F   0  0  0  0  0  0  0  0  0  0  0  0
   -5.8254    6.4203  -15.5438 F   0  0  0  0  0  0  0  0  0  0  0  0
   -7.2535    5.5786  -16.9386 F   0  0  0  0  0  0  0  0  0  0  0  0
  1  2  1  0
  2  3  1  0
  3  4  1  0
  4  5  2  0
  5  6  1  0
  6  7  2  0
  7  8  1  0
  8  9  2  0
  8 10  1  0
 10 11  1  0
 11 12  1  0
  2 13  1  0
 13 14  1  0
 14 15  1  0
 14 16  1  0
 14 17  1  0
  9  4  1  0
 12  7  1  0
M  END
>  <tags>  (27) 
openbind_xx01zvns2b_c1_knitwork_impure,fragmenstein_placed,openbind_xx01zvns2b_c1_scaffolds_chemok_bbok,BulkDock Fragalysis export,openbind_xx01zvns2b_c1_scaffolds

>  <placement_batch>  (27) 
openbind_xx01zvns2b_c1_knitwork_impure

>  <inspiration_score>  (27) 
None

>  <name>  (27) 
P54449

>  <HIPPO Pose ID>  (27) 
54449

>  <ref_pdb>  (27) 
Z3515a

>  <inchikey>  (27) 
HFZVEUSFCUZXPP-UHFFFAOYSA-N

>  <alias>  (27) 
None

>  <ref_mols>  (27) 
Z0472a,Z3515a

>  <subsites>  (27) 
1 - Z4590/B/203/1

>  <distance_score>  (27) 
0.773533

>  <HIPPO Compound ID>  (27) 
61575

>  <smiles>  (27) 
CN(Cc1ccc2c(c1)CNC2)CC(F)(F)F

>  <energy_score>  (27) 
-14.207948

$$$$
P54481
     RDKit          3D

 19 20  0  0  0  0  0  0  0  0999 V2000
   -1.2981    5.3666  -14.3828 C   0  0  0  0  0  0  0  0  0  0  0  0
   -2.3688    4.8903  -15.2650 N   0  0  0  0  0  0  0  0  0  0  0  0
   -2.3192    5.6429  -16.5493 C   0  0  0  0  0  0  0  0  0  0  0  0
   -3.4028    5.3601  -17.6371 C   0  0  0  0  0  0  0  0  0  0  0  0
   -4.7088    5.9139  -17.2719 N   0  0  0  0  0  0  0  0  0  0  0  0
   -4.8622    7.3551  -17.1904 C   0  0  0  0  0  0  0  0  0  0  0  0
   -5.8717    5.2403  -17.6330 C   0  0  0  0  0  0  0  0  0  0  0  0
   -6.1108    4.7375  -18.9144 C   0  0  0  0  0  0  0  0  0  0  0  0
   -7.2975    4.0735  -19.1879 C   0  0  0  0  0  0  0  0  0  0  0  0
   -8.2701    3.8179  -18.2976 N   0  0  0  0  0  0  0  0  0  0  0  0
   -8.0498    4.3123  -17.0543 C   0  0  0  0  0  0  0  0  0  0  0  0
   -8.9307    4.1543  -15.9566 C   0  0  0  0  0  0  0  0  0  0  0  0
   -8.4678    4.7225  -14.7968 C   0  0  0  0  0  0  0  0  0  0  0  0
   -7.0331    5.5755  -15.0684 S   0  0  0  0  0  0  0  0  0  0  0  0
   -6.9145    5.0347  -16.7046 C   0  0  0  0  0  0  0  0  0  0  0  0
   -3.6907    5.0208  -14.6147 C   0  0  0  0  0  0  0  0  0  0  0  0
   -3.9092    4.4633  -13.2022 C   0  0  0  0  0  0  0  0  0  0  0  0
   -5.2351    4.5422  -12.9037 F   0  0  0  0  0  0  0  0  0  0  0  0
   -3.2687    5.2392  -12.2864 F   0  0  0  0  0  0  0  0  0  0  0  0
  1  2  1  0
  2  3  1  0
  3  4  1  0
  4  5  1  0
  5  6  1  0
  5  7  1  0
  7  8  2  0
  8  9  1  0
  9 10  2  0
 10 11  1  0
 11 12  1  0
 12 13  2  0
 13 14  1  0
 14 15  1  0
  2 16  1  0
 16 17  1  0
 17 18  1  0
 17 19  1  0
 15  7  1  0
 15 11  2  0
M  END
>  <tags>  (28) 
openbind_xx01zvns2b_c1_knitwork_impure,fragmenstein_placed

>  <placement_batch>  (28) 
openbind_xx01zvns2b_c1_knitwork_impure

>  <inspiration_score>  (28) 
None

>  <name>  (28) 
P54481

>  <HIPPO Pose ID>  (28) 
54481

>  <ref_pdb>  (28) 
Z3515a

>  <inchikey>  (28) 
NTSVAWSXRCGLIM-UHFFFAOYSA-N

>  <alias>  (28) 
None

>  <ref_mols>  (28) 
Z0472a,Z3515a

>  <subsites>  (28) 
1 - Z4590/B/203/1

>  <distance_score>  (28) 
0.958848

>  <HIPPO Compound ID>  (28) 
61632

>  <smiles>  (28) 
CN(CCN(C)c1ccnc2ccsc12)CC(F)F

>  <energy_score>  (28) 
-51.149364

$$$$
P54556
     RDKit          3D

 11 12  0  0  0  0  0  0  0  0999 V2000
   -7.3196    5.1147  -18.0431 C   0  0  0  0  0  0  0  0  0  0  0  0
   -7.6981    5.5673  -16.8717 N   0  0  0  0  0  0  0  0  0  0  0  0
   -6.5600    5.6049  -16.0824 C   0  0  0  0  0  0  0  0  0  0  0  0
   -6.6786    6.0764  -14.6406 C   0  0  2  0  0  0  0  0  0  0  0  0
   -5.6105    5.4891  -13.6950 C   0  0  0  0  0  0  0  0  0  0  0  0
   -6.0730    5.5327  -12.2382 C   0  0  0  0  0  0  0  0  0  0  0  0
   -7.4032    4.7952  -12.0593 C   0  0  0  0  0  0  0  0  0  0  0  0
   -8.1354    4.5911  -13.3850 C   0  0  0  0  0  0  0  0  0  0  0  0
   -8.0668    5.8140  -14.1814 N   0  0  0  0  0  0  0  0  0  0  0  0
   -5.4741    5.1929  -16.8329 C   0  0  0  0  0  0  0  0  0  0  0  0
   -5.9796    4.8652  -18.0664 N   0  0  0  0  0  0  0  0  0  0  0  0
  1  2  2  0
  2  3  1  0
  4  3  1  6
  4  5  1  0
  5  6  1  0
  6  7  1  0
  7  8  1  0
  8  9  1  0
  3 10  2  0
 10 11  1  0
 11  1  1  0
  9  4  1  0
M  END
>  <tags>  (29) 
openbind_xx01zvns2b_c1_knitwork_impure,BulkDock Fragalysis export,fragmenstein_placed,openbind_xx01zvns2b_c1_scaffolds

>  <placement_batch>  (29) 
openbind_xx01zvns2b_c1_knitwork_impure

>  <inspiration_score>  (29) 
None

>  <name>  (29) 
P54556

>  <HIPPO Pose ID>  (29) 
54556

>  <ref_pdb>  (29) 
Z0800a

>  <inchikey>  (29) 
DDLMIMVHZLFBIV-UHFFFAOYSA-N

>  <alias>  (29) 
None

>  <ref_mols>  (29) 
Z0827a,Z0800a

>  <subsites>  (29) 
1 - Z4590/B/203/1

>  <distance_score>  (29) 
0.843913

>  <HIPPO Compound ID>  (29) 
5018

>  <smiles>  (29) 
c1nc([C@@H]2CCCCN2)c[nH]1

>  <energy_score>  (29) 
-17.89675

$$$$
P54558
     RDKit          3D

  9 10  0  0  0  0  0  0  0  0999 V2000
   -5.0808    5.7739  -17.3245 C   0  0  0  0  0  0  0  0  0  0  0  0
   -4.8128    5.6895  -18.6690 C   0  0  0  0  0  0  0  0  0  0  0  0
   -5.9385    5.1459  -19.2277 N   0  0  0  0  0  0  0  0  0  0  0  0
   -6.8209    4.9068  -18.2088 C   0  0  0  0  0  0  0  0  0  0  0  0
   -8.1914    4.1886  -18.4008 C   0  0  0  0  0  0  0  0  0  0  0  0
   -9.4281    5.0791  -18.5509 C   0  0  0  0  0  0  0  0  0  0  0  0
   -9.6447    4.9824  -17.0961 N   0  0  0  0  0  0  0  0  0  0  0  0
   -8.8587    3.7382  -17.0925 C   0  0  0  0  0  0  0  0  0  0  0  0
   -6.3283    5.2962  -17.0503 N   0  0  0  0  0  0  0  0  0  0  0  0
  1  2  2  0
  2  3  1  0
  3  4  1  0
  4  5  1  0
  5  6  1  0
  6  7  1  0
  7  8  1  0
  4  9  2  0
  9  1  1  0
  8  5  1  0
M  END
>  <tags>  (30) 
openbind_xx01zvns2b_c1_knitwork_impure,fragmenstein_placed,openbind_xx01zvns2b_c1_scaffolds_chemok_bbok,BulkDock Fragalysis export,openbind_xx01zvns2b_c1_scaffolds

>  <placement_batch>  (30) 
openbind_xx01zvns2b_c1_knitwork_impure

>  <inspiration_score>  (30) 
None

>  <name>  (30) 
P54558

>  <HIPPO Pose ID>  (30) 
54558

>  <ref_pdb>  (30) 
Z0800a

>  <inchikey>  (30) 
CCDGEFSIGRVNTO-UHFFFAOYSA-N

>  <alias>  (30) 
None

>  <ref_mols>  (30) 
Z0827a,Z0800a

>  <subsites>  (30) 
1 - Z4590/B/203/1

>  <distance_score>  (30) 
0.956431

>  <HIPPO Compound ID>  (30) 
59987

>  <smiles>  (30) 
c1c[nH]c(C2CNC2)n1

>  <energy_score>  (30) 
-8.396282

$$$$
P54610
     RDKit          3D

 19 22  0  0  0  0  0  0  0  0999 V2000
   -7.5175    4.7890  -18.4282 C   0  0  0  0  0  0  0  0  0  0  0  0
   -7.7533    4.6912  -17.0576 C   0  0  0  0  0  0  0  0  0  0  0  0
   -6.6955    4.8124  -16.1421 C   0  0  0  0  0  0  0  0  0  0  0  0
   -6.8528    4.6786  -14.7690 N   0  0  0  0  0  0  0  0  0  0  0  0
   -8.0368    5.1942  -14.0894 C   0  0  0  0  0  0  0  0  0  0  0  0
   -8.0937    4.8458  -12.6285 C   0  0  0  0  0  0  0  0  0  0  0  0
   -8.2328    3.5775  -12.0760 C   0  0  0  0  0  0  0  0  0  0  0  0
   -8.2213    3.7760  -10.7333 N   0  0  0  0  0  0  0  0  0  0  0  0
   -8.3171    3.0088   -9.6001 C   0  0  0  0  0  0  0  0  0  0  0  0
   -8.2081    3.7488   -8.4862 C   0  0  0  0  0  0  0  0  0  0  0  0
   -7.9749    5.4707   -8.8303 S   0  0  0  0  0  0  0  0  0  0  0  0
   -8.0478    5.1111  -10.5299 C   0  0  0  0  0  0  0  0  0  0  0  0
   -7.9710    5.8117  -11.6328 N   0  0  0  0  0  0  0  0  0  0  0  0
   -5.4236    4.9937  -16.7256 C   0  0  0  0  0  0  0  0  0  0  0  0
   -4.0809    5.1176  -16.2953 C   0  0  0  0  0  0  0  0  0  0  0  0
   -3.2106    5.2715  -17.3031 N   0  0  0  0  0  0  0  0  0  0  0  0
   -4.0062    5.2279  -18.3920 N   0  0  0  0  0  0  0  0  0  0  0  0
   -5.3268    5.0725  -18.1036 C   0  0  0  0  0  0  0  0  0  0  0  0
   -6.3142    4.9952  -19.0038 N   0  0  0  0  0  0  0  0  0  0  0  0
  1  2  2  0
  2  3  1  0
  3  4  1  0
  4  5  1  0
  5  6  1  0
  6  7  2  0
  7  8  1  0
  8  9  1  0
  9 10  2  0
 10 11  1  0
 11 12  1  0
 12 13  2  0
  3 14  2  0
 14 15  1  0
 15 16  2  0
 16 17  1  0
 17 18  1  0
 18 19  2  0
 19  1  1  0
 13  6  1  0
 18 14  1  0
 12  8  1  0
M  END
>  <tags>  (31) 
openbind_xx01zvns2b_c1_knitwork_impure,BulkDock Fragalysis export,fragmenstein_placed,openbind_xx01zvns2b_c1_scaffolds

>  <placement_batch>  (31) 
openbind_xx01zvns2b_c1_knitwork_impure

>  <inspiration_score>  (31) 
None

>  <name>  (31) 
P54610

>  <HIPPO Pose ID>  (31) 
54610

>  <ref_pdb>  (31) 
Z0709a

>  <inchikey>  (31) 
LOUJKKARGRYPDB-UHFFFAOYSA-N

>  <alias>  (31) 
None

>  <ref_mols>  (31) 
Z0709a,Z1495a

>  <subsites>  (31) 
1 - Z4590/B/203/1

>  <distance_score>  (31) 
0.846529

>  <HIPPO Compound ID>  (31) 
61879

>  <smiles>  (31) 
c1cc(NCc2cn3ccsc3n2)c2cn[nH]c2n1

>  <energy_score>  (31) 
-42.973726

$$$$
P54611
     RDKit          3D

 21 24  0  0  0  0  0  0  0  0999 V2000
   -8.4919    3.5855   -7.7375 C   0  0  0  0  0  0  0  0  0  0  0  0
   -8.5744    2.6138   -8.7292 C   0  0  0  0  0  0  0  0  0  0  0  0
   -8.4508    2.9514  -10.0778 C   0  0  0  0  0  0  0  0  0  0  0  0
   -8.2380    4.2944  -10.3895 C   0  0  0  0  0  0  0  0  0  0  0  0
   -8.1642    5.2889   -9.4270 C   0  0  0  0  0  0  0  0  0  0  0  0
   -8.2861    4.9327   -8.0743 C   0  0  0  0  0  0  0  0  0  0  0  0
   -7.9786    6.5199  -10.0163 N   0  0  0  0  0  0  0  0  0  0  0  0
   -7.9201    6.2819  -11.3090 C   0  0  0  0  0  0  0  0  0  0  0  0
   -8.0529    4.9542  -11.5799 N   0  0  0  0  0  0  0  0  0  0  0  0
   -7.9870    4.2746  -12.8438 C   0  0  0  0  0  0  0  0  0  0  0  0
   -7.5499    5.0571  -14.0799 C   0  0  0  0  0  0  0  0  0  0  0  0
   -7.0307    4.0857  -15.0411 N   0  0  0  0  0  0  0  0  0  0  0  0
   -6.7741    4.5671  -16.3256 C   0  0  0  0  0  0  0  0  0  0  0  0
   -7.7909    4.6193  -17.2832 C   0  0  0  0  0  0  0  0  0  0  0  0
   -7.4783    4.9729  -18.5873 C   0  0  0  0  0  0  0  0  0  0  0  0
   -6.2520    5.3197  -19.0420 N   0  0  0  0  0  0  0  0  0  0  0  0
   -5.3154    5.2602  -18.0860 C   0  0  0  0  0  0  0  0  0  0  0  0
   -3.9860    5.4975  -18.2536 N   0  0  0  0  0  0  0  0  0  0  0  0
   -3.2586    5.3544  -17.1253 N   0  0  0  0  0  0  0  0  0  0  0  0
   -4.1796    4.9863  -16.2225 C   0  0  0  0  0  0  0  0  0  0  0  0
   -5.4847    4.9190  -16.7573 C   0  0  0  0  0  0  0  0  0  0  0  0
  1  2  2  0
  2  3  1  0
  3  4  2  0
  4  5  1  0
  5  6  2  0
  5  7  1  0
  7  8  2  0
  8  9  1  0
  9 10  1  0
 10 11  1  0
 11 12  1  0
 12 13  1  0
 13 14  2  0
 14 15  1  0
 15 16  2  0
 16 17  1  0
 17 18  1  0
 18 19  1  0
 19 20  2  0
 20 21  1  0
  6  1  1  0
 21 13  1  0
  9  4  1  0
 21 17  2  0
M  END
>  <tags>  (32) 
openbind_xx01zvns2b_c1_knitwork_impure,BulkDock Fragalysis export,fragmenstein_placed,openbind_xx01zvns2b_c1_scaffolds

>  <placement_batch>  (32) 
openbind_xx01zvns2b_c1_knitwork_impure

>  <inspiration_score>  (32) 
None

>  <name>  (32) 
P54611

>  <HIPPO Pose ID>  (32) 
54611

>  <ref_pdb>  (32) 
Z0709a

>  <inchikey>  (32) 
VTNOQBVIRWTSIN-UHFFFAOYSA-N

>  <alias>  (32) 
None

>  <ref_mols>  (32) 
Z0709a,Z1495a

>  <subsites>  (32) 
1 - Z4590/B/203/1

>  <distance_score>  (32) 
0.896174

>  <HIPPO Compound ID>  (32) 
61880

>  <smiles>  (32) 
c1ccc2c(c1)ncn2CCNc1ccnc2[nH]ncc12

>  <energy_score>  (32) 
-114.015205

$$$$
P54625
     RDKit          3D

 17 18  0  0  0  0  0  0  0  0999 V2000
   -8.7217    2.2759   -8.4409 C   0  0  0  0  0  0  0  0  0  0  0  0
   -7.8796    3.0611   -9.3465 N   0  0  0  0  0  0  0  0  0  0  0  0
   -6.8049    2.2676   -9.9566 C   0  0  0  0  0  0  0  0  0  0  0  0
   -6.7844    2.2560  -11.4910 C   0  0  0  0  0  0  0  0  0  0  0  0
   -6.8789    3.6670  -12.0830 C   0  0  0  0  0  0  0  0  0  0  0  0
   -7.1634    3.6019  -13.6071 C   0  0  0  0  0  0  0  0  0  0  0  0
   -7.3670    4.9206  -14.2331 N   0  0  0  0  0  0  0  0  0  0  0  0
   -6.2575    5.8446  -13.9889 C   0  0  0  0  0  0  0  0  0  0  0  0
   -7.8027    4.9300  -15.6435 C   0  0  0  0  0  0  0  0  0  0  0  0
   -6.6922    4.7157  -16.6793 C   0  0  0  0  0  0  0  0  0  0  0  0
   -7.1927    4.9294  -18.1004 C   0  0  0  0  0  0  0  0  0  0  0  0
   -8.4664    4.1843  -18.4015 C   0  0  0  0  0  0  0  0  0  0  0  0
   -8.6967    3.7565  -19.5304 O   0  0  0  0  0  0  0  0  0  0  0  0
   -9.5314    4.0990  -17.3428 C   0  0  0  0  0  0  0  0  0  0  0  0
   -8.9794    3.9932  -15.9317 C   0  0  0  0  0  0  0  0  0  0  0  0
   -7.9103    4.5255  -11.3263 C   0  0  0  0  0  0  0  0  0  0  0  0
   -8.7295    3.7329  -10.3221 C   0  0  0  0  0  0  0  0  0  0  0  0
  1  2  1  0
  2  3  1  0
  3  4  1  0
  4  5  1  0
  5  6  1  0
  6  7  1  0
  7  8  1  0
  7  9  1  0
  9 10  1  0
 10 11  1  0
 11 12  1  0
 12 13  2  0
 12 14  1  0
 14 15  1  0
  5 16  1  0
 16 17  1  0
 17  2  1  0
 15  9  1  0
M  END
>  <tags>  (33) 
openbind_xx01zvns2b_c1_knitwork_impure,fragmenstein_placed,openbind_xx01zvns2b_c1_scaffolds_chemok_bbok,BulkDock Fragalysis export,openbind_xx01zvns2b_c1_scaffolds

>  <placement_batch>  (33) 
openbind_xx01zvns2b_c1_knitwork_impure

>  <inspiration_score>  (33) 
None

>  <name>  (33) 
P54625

>  <HIPPO Pose ID>  (33) 
54625

>  <ref_pdb>  (33) 
Z1729a

>  <inchikey>  (33) 
KAWATXBRPQPNJQ-UHFFFAOYSA-N

>  <alias>  (33) 
None

>  <ref_mols>  (33) 
Z1729a,Z0465a

>  <subsites>  (33) 
1 - Z4590/B/203/1

>  <distance_score>  (33) 
0.882262

>  <HIPPO Compound ID>  (33) 
61908

>  <smiles>  (33) 
CN1CCC(CN(C)C2CCC(=O)CC2)CC1

>  <energy_score>  (33) 
-51.001293

$$$$
P54691
     RDKit          3D

 23 26  0  0  0  0  0  0  0  0999 V2000
   -6.0386    7.1938  -13.7767 O   0  0  0  0  0  0  0  0  0  0  0  0
   -7.0693    6.7211  -13.4848 C   0  0  0  0  0  0  0  0  0  0  0  0
   -7.8536    7.1649  -12.2319 C   0  0  0  0  0  0  0  0  0  0  0  0
   -7.1582    6.8886  -10.8980 C   0  0  0  0  0  0  0  0  0  0  0  0
   -7.7075    5.6847  -10.1953 C   0  0  0  0  0  0  0  0  0  0  0  0
   -7.8135    4.3900  -10.7457 C   0  0  0  0  0  0  0  0  0  0  0  0
   -8.3082    3.6140   -9.7319 C   0  0  0  0  0  0  0  0  0  0  0  0
   -8.4566    4.4346   -8.6572 N   0  0  0  0  0  0  0  0  0  0  0  0
   -8.1373    5.7248   -8.9191 N   0  0  0  0  0  0  0  0  0  0  0  0
   -8.8189    3.9671   -7.3303 C   0  0  0  0  0  0  0  0  0  0  0  0
   -9.4250    2.5574   -7.3935 C   0  0  0  0  0  0  0  0  0  0  0  0
   -8.6599    1.7041   -8.2807 N   0  0  0  0  0  0  0  0  0  0  0  0
   -8.6130    2.1744   -9.6534 C   0  0  0  0  0  0  0  0  0  0  0  0
   -7.9568    5.6777  -14.2422 N   0  0  0  0  0  0  0  0  0  0  0  0
   -7.8042    5.1108  -15.4908 C   0  0  0  0  0  0  0  0  0  0  0  0
   -8.8673    4.4235  -15.9724 C   0  0  0  0  0  0  0  0  0  0  0  0
   -9.0091    4.0332  -17.3634 C   0  0  0  0  0  0  0  0  0  0  0  0
   -7.9993    4.2920  -18.2022 C   0  0  0  0  0  0  0  0  0  0  0  0
   -6.8518    4.8877  -17.6994 N   0  0  0  0  0  0  0  0  0  0  0  0
   -5.6853    5.1944  -18.3370 C   0  0  0  0  0  0  0  0  0  0  0  0
   -4.8335    5.7136  -17.4854 N   0  0  0  0  0  0  0  0  0  0  0  0
   -5.4600    5.7782  -16.2529 N   0  0  0  0  0  0  0  0  0  0  0  0
   -6.6847    5.3012  -16.3747 C   0  0  0  0  0  0  0  0  0  0  0  0
  1  2  2  0
  2  3  1  0
  3  4  1  0
  4  5  1  0
  5  6  1  0
  6  7  2  0
  7  8  1  0
  8  9  1  0
  8 10  1  0
 10 11  1  0
 11 12  1  0
 12 13  1  0
  2 14  1  0
 14 15  1  0
 15 16  2  0
 16 17  1  0
 17 18  2  0
 18 19  1  0
 19 20  1  0
 20 21  2  0
 21 22  1  0
 22 23  2  0
  9  5  2  0
 23 15  1  0
 13  7  1  0
 23 19  1  0
M  END
>  <tags>  (34) 
openbind_xx01zvns2b_c1_knitwork_impure,BulkDock Fragalysis export,fragmenstein_placed,openbind_xx01zvns2b_c1_scaffolds

>  <placement_batch>  (34) 
openbind_xx01zvns2b_c1_knitwork_impure

>  <inspiration_score>  (34) 
None

>  <name>  (34) 
P54691

>  <HIPPO Pose ID>  (34) 
54691

>  <ref_pdb>  (34) 
Z0969a

>  <inchikey>  (34) 
RSPLUFYFOMHUOI-UHFFFAOYSA-N

>  <alias>  (34) 
None

>  <ref_mols>  (34) 
Z0969a,Z0435a

>  <subsites>  (34) 
1 - Z4590/B/203/1

>  <distance_score>  (34) 
0.812296

>  <HIPPO Compound ID>  (34) 
62023

>  <smiles>  (34) 
O=C(CCc1cc2n(n1)CCNC2)Nc1cccn2cnnc12

>  <energy_score>  (34) 
-14.680541

$$$$
P54734
     RDKit          3D

 17 18  0  0  0  0  0  0  0  0999 V2000
   -7.0580    2.0119  -13.1635 N   0  0  0  0  0  0  0  0  0  0  0  0
   -5.9245    3.0353  -12.9102 S   0  0  1  0  0  0  0  0  0  0  0  0
   -4.5290    2.6327  -12.7745 O   0  0  0  0  0  0  0  0  0  0  0  0
   -5.9153    4.2263  -14.2591 C   0  0  0  0  0  0  0  0  0  0  0  0
   -4.7667    4.9656  -14.4934 C   0  0  0  0  0  0  0  0  0  0  0  0
   -4.6163    5.5310  -15.7512 C   0  0  0  0  0  0  0  0  0  0  0  0
   -5.5901    5.3025  -16.7297 C   0  0  0  0  0  0  0  0  0  0  0  0
   -5.3910    5.7133  -18.0548 C   0  0  0  0  0  0  0  0  0  0  0  0
   -6.3352    5.3992  -19.0232 C   0  0  0  0  0  0  0  0  0  0  0  0
   -7.5005    4.7281  -18.6623 C   0  0  0  0  0  0  0  0  0  0  0  0
   -7.7125    4.3516  -17.3378 C   0  0  0  0  0  0  0  0  0  0  0  0
   -6.7583    4.5895  -16.3651 C   0  0  0  0  0  0  0  0  0  0  0  0
   -6.9349    4.0769  -15.1370 N   0  0  0  0  0  0  0  0  0  0  0  0
   -6.3693    4.0845  -11.5165 C   0  0  0  0  0  0  0  0  0  0  0  0
   -7.4611    4.8675  -11.7604 F   0  0  0  0  0  0  0  0  0  0  0  0
   -5.3636    4.9585  -11.1991 F   0  0  0  0  0  0  0  0  0  0  0  0
   -7.2721    1.9384  -14.1701 H   0  0  0  0  0  0  0  0  0  0  0  0
  1  2  2  0
  2  3  2  0
  2  4  1  0
  4  5  2  0
  5  6  1  0
  6  7  2  0
  7  8  1  0
  8  9  2  0
  9 10  1  0
 10 11  2  0
 11 12  1  0
 12 13  2  0
  2 14  1  1
 14 15  1  0
 14 16  1  0
 13  4  1  0
 12  7  1  0
  1 17  1  0
M  END
>  <tags>  (35) 
openbind_xx01zvns2b_c1_knitwork_impure,BulkDock Fragalysis export,fragmenstein_placed,openbind_xx01zvns2b_c1_scaffolds

>  <placement_batch>  (35) 
openbind_xx01zvns2b_c1_knitwork_impure

>  <inspiration_score>  (35) 
None

>  <name>  (35) 
P54734

>  <HIPPO Pose ID>  (35) 
54734

>  <ref_pdb>  (35) 
Z1713a

>  <inchikey>  (35) 
PGPVCGFJUVEWMX-UHFFFAOYSA-N

>  <alias>  (35) 
None

>  <ref_mols>  (35) 
Z0719a,Z1713a

>  <subsites>  (35) 
1 - Z4590/B/203/1

>  <distance_score>  (35) 
0.687774

>  <HIPPO Compound ID>  (35) 
60509

>  <smiles>  (35) 
[H]N=[S@@](=O)(c1ccc2ccccc2n1)C(F)F

>  <energy_score>  (35) 
-21.351884

$$$$
P54886
     RDKit          3D

 10 10  0  0  0  0  0  0  0  0999 V2000
   -4.4775    7.0114  -20.9664 C   0  0  0  0  0  0  0  0  0  0  0  0
   -4.3624    5.5698  -20.5285 C   0  0  0  0  0  0  0  0  0  0  0  0
   -4.8651    5.3746  -19.1070 C   0  0  0  0  0  0  0  0  0  0  0  0
   -4.1512    5.3737  -18.1823 O   0  0  0  0  0  0  0  0  0  0  0  0
   -6.3964    5.1434  -19.1950 N   0  0  0  0  0  0  0  0  0  0  0  0
   -7.2922    4.7917  -18.2355 C   0  0  0  0  0  0  0  0  0  0  0  0
   -7.0379    4.7786  -16.8334 C   0  0  0  0  0  0  0  0  0  0  0  0
   -8.1549    4.3591  -16.1423 C   0  0  0  0  0  0  0  0  0  0  0  0
   -9.3831    4.0095  -17.2764 S   0  0  0  0  0  0  0  0  0  0  0  0
   -8.5083    4.4122  -18.6115 N   0  0  0  0  0  0  0  0  0  0  0  0
  1  2  1  0
  2  3  1  0
  3  4  2  0
  3  5  1  0
  5  6  1  0
  6  7  1  0
  7  8  2  0
  8  9  1  0
  9 10  1  0
 10  6  2  0
M  END
>  <tags>  (36) 
openbind_xx01zvns2b_c1_knitwork_impure,fragmenstein_placed,openbind_xx01zvns2b_c1_scaffolds_chemok_bbok,BulkDock Fragalysis export,openbind_xx01zvns2b_c1_scaffolds

>  <placement_batch>  (36) 
openbind_xx01zvns2b_c1_knitwork_impure

>  <inspiration_score>  (36) 
None

>  <name>  (36) 
P54886

>  <HIPPO Pose ID>  (36) 
54886

>  <ref_pdb>  (36) 
Z1597a

>  <inchikey>  (36) 
APKRZYDFNNUPNV-UHFFFAOYSA-N

>  <alias>  (36) 
None

>  <ref_mols>  (36) 
Z0788b,Z0465a,Z1597a,Z0673a,Z0673b

>  <subsites>  (36) 
1 - Z4590/B/203/1,6 - Z0788/B/302/1

>  <distance_score>  (36) 
0.814446

>  <HIPPO Compound ID>  (36) 
62267

>  <smiles>  (36) 
CCC(=O)Nc1ccsn1

>  <energy_score>  (36) 
-31.832053

$$$$
P54960
     RDKit          3D

 12 13  0  0  0  0  0  0  0  0999 V2000
   -9.3357    4.2489  -17.3214 C   0  0  0  0  0  0  0  0  0  0  0  0
   -8.8894    4.2588  -16.0128 C   0  0  0  0  0  0  0  0  0  0  0  0
   -7.6452    4.6202  -15.6347 N   0  0  0  0  0  0  0  0  0  0  0  0
   -6.8058    4.9925  -16.6211 C   0  0  0  0  0  0  0  0  0  0  0  0
   -7.1523    5.0521  -17.9655 C   0  0  0  0  0  0  0  0  0  0  0  0
   -6.2404    5.6695  -18.9921 C   0  0  2  0  0  0  0  0  0  0  0  0
   -4.8057    5.0718  -19.0665 C   0  0  0  0  0  0  0  0  0  0  0  0
   -3.9970    5.6879  -20.1539 N   0  0  0  0  0  0  0  0  0  0  0  0
   -3.9871    7.1506  -19.9566 C   0  0  0  0  0  0  0  0  0  0  0  0
   -5.3988    7.7564  -19.8318 C   0  0  0  0  0  0  0  0  0  0  0  0
   -6.1902    7.1398  -18.7647 N   0  0  0  0  0  0  0  0  0  0  0  0
   -8.4492    4.6494  -18.3099 C   0  0  0  0  0  0  0  0  0  0  0  0
  1  2  2  0
  2  3  1  0
  3  4  2  0
  4  5  1  0
  6  5  1  1
  6  7  1  0
  7  8  1  0
  8  9  1  0
  9 10  1  0
 10 11  1  0
  5 12  2  0
 12  1  1  0
 11  6  1  0
M  END
>  <tags>  (37) 
openbind_xx01zvns2b_c1_knitwork_impure,fragmenstein_placed,openbind_xx01zvns2b_c1_scaffolds_chemok_bbok,BulkDock Fragalysis export,openbind_xx01zvns2b_c1_scaffolds

>  <placement_batch>  (37) 
openbind_xx01zvns2b_c1_knitwork_impure

>  <inspiration_score>  (37) 
None

>  <name>  (37) 
P54960

>  <HIPPO Pose ID>  (37) 
54960

>  <ref_pdb>  (37) 
Z0990a

>  <inchikey>  (37) 
CGUDKJYHYOYXAQ-UHFFFAOYSA-N

>  <alias>  (37) 
None

>  <ref_mols>  (37) 
Z1098a,Z0990a

>  <subsites>  (37) 
1 - Z4590/B/203/1

>  <distance_score>  (37) 
0.984771

>  <HIPPO Compound ID>  (37) 
53862

>  <smiles>  (37) 
c1cncc([C@@H]2CNCCN2)c1

>  <energy_score>  (37) 
-25.901997

$$$$
P55094
     RDKit          3D

 13 14  0  0  0  0  0  0  0  0999 V2000
   -7.8767    4.9087  -15.2383 S   0  0  0  0  0  0  0  0  0  0  0  0
   -6.7278    4.8976  -16.4512 C   0  0  0  0  0  0  0  0  0  0  0  0
   -5.2798    5.0991  -16.2235 C   0  0  0  0  0  0  0  0  0  0  0  0
   -4.4365    5.1521  -17.2595 C   0  0  0  0  0  0  0  0  0  0  0  0
   -5.0181    4.9998  -18.6146 C   0  0  0  0  0  0  0  0  0  0  0  0
   -4.1238    5.1336  -19.7982 C   0  0  0  0  0  0  0  0  0  0  0  0
   -4.7029    5.4594  -21.0301 C   0  0  0  0  0  0  0  0  0  0  0  0
   -3.9079    5.6176  -22.1594 C   0  0  0  0  0  0  0  0  0  0  0  0
   -2.5456    5.4323  -22.0257 C   0  0  0  0  0  0  0  0  0  0  0  0
   -1.9485    5.1219  -20.8568 N   0  0  0  0  0  0  0  0  0  0  0  0
   -2.7476    4.9629  -19.7730 C   0  0  0  0  0  0  0  0  0  0  0  0
   -6.2818    4.7922  -18.8289 N   0  0  0  0  0  0  0  0  0  0  0  0
   -7.1083    4.7227  -17.7539 N   0  0  0  0  0  0  0  0  0  0  0  0
  1  2  2  0
  2  3  1  0
  3  4  2  0
  4  5  1  0
  5  6  1  0
  6  7  2  0
  7  8  1  0
  8  9  2  0
  9 10  1  0
 10 11  2  0
  5 12  2  0
 12 13  1  0
 13  2  1  0
 11  6  1  0
M  END
>  <tags>  (38) 
openbind_xx01zvns2b_c1_knitwork_impure,BulkDock Fragalysis export,fragmenstein_placed,openbind_xx01zvns2b_c1_scaffolds

>  <placement_batch>  (38) 
openbind_xx01zvns2b_c1_knitwork_impure

>  <inspiration_score>  (38) 
None

>  <name>  (38) 
P55094

>  <HIPPO Pose ID>  (38) 
55094

>  <ref_pdb>  (38) 
Z0852a

>  <inchikey>  (38) 
METBTRUTPQWJGO-UHFFFAOYSA-N

>  <alias>  (38) 
None

>  <ref_mols>  (38) 
Z1098a,Z0852a,Z1342a

>  <subsites>  (38) 
1 - Z4590/B/203/1

>  <distance_score>  (38) 
0.702763

>  <HIPPO Compound ID>  (38) 
62727

>  <smiles>  (38) 
S=c1ccc(-c2cccnc2)n[nH]1

>  <energy_score>  (38) 
-18.842441

$$$$
P55120
     RDKit          3D

 11 12  0  0  0  0  0  0  0  0999 V2000
   -8.1580    4.1360  -16.9256 C   0  0  0  0  0  0  0  0  0  0  0  0
   -7.0730    4.3161  -16.0749 C   0  0  0  0  0  0  0  0  0  0  0  0
   -6.0463    5.1833  -16.4391 C   0  0  0  0  0  0  0  0  0  0  0  0
   -6.1756    5.8870  -17.6326 C   0  0  0  0  0  0  0  0  0  0  0  0
   -5.2069    6.8628  -18.0029 N   0  0  0  0  0  0  0  0  0  0  0  0
   -3.9330    7.0234  -17.4923 C   0  0  0  0  0  0  0  0  0  0  0  0
   -3.3747    8.1054  -18.1280 C   0  0  0  0  0  0  0  0  0  0  0  0
   -4.3752    8.5612  -18.9963 C   0  0  0  0  0  0  0  0  0  0  0  0
   -5.4893    7.8384  -18.9190 N   0  0  0  0  0  0  0  0  0  0  0  0
   -7.2296    5.7195  -18.4591 N   0  0  0  0  0  0  0  0  0  0  0  0
   -8.1784    4.8303  -18.1165 C   0  0  0  0  0  0  0  0  0  0  0  0
  1  2  2  0
  2  3  1  0
  3  4  2  0
  4  5  1  0
  5  6  1  0
  6  7  2  0
  7  8  1  0
  8  9  2  0
  4 10  1  0
 10 11  2  0
 11  1  1  0
  9  5  1  0
M  END
>  <tags>  (39) 
openbind_xx01zvns2b_c1_knitwork_impure,fragmenstein_placed,openbind_xx01zvns2b_c1_scaffolds_chemok_bbok,BulkDock Fragalysis export,openbind_xx01zvns2b_c1_scaffolds

>  <placement_batch>  (39) 
openbind_xx01zvns2b_c1_knitwork_impure

>  <inspiration_score>  (39) 
None

>  <name>  (39) 
P55120

>  <HIPPO Pose ID>  (39) 
55120

>  <ref_pdb>  (39) 
Z1495a

>  <inchikey>  (39) 
BQRNFBBCKXQEDG-UHFFFAOYSA-N

>  <alias>  (39) 
None

>  <ref_mols>  (39) 
Z0425a,Z0788a,Z1495a,Z0465a

>  <subsites>  (39) 
1 - Z4590/B/203/1

>  <distance_score>  (39) 
0.926251

>  <HIPPO Compound ID>  (39) 
11377

>  <smiles>  (39) 
c1ccc(-n2cccn2)nc1

>  <energy_score>  (39) 
-14.514711

$$$$
P55123
     RDKit          3D

 11 12  0  0  0  0  0  0  0  0999 V2000
   -8.1305    4.1349  -16.9216 C   0  0  0  0  0  0  0  0  0  0  0  0
   -7.1998    4.5034  -15.9552 C   0  0  0  0  0  0  0  0  0  0  0  0
   -6.1633    5.3644  -16.2994 C   0  0  0  0  0  0  0  0  0  0  0  0
   -6.1097    5.8289  -17.6072 C   0  0  0  0  0  0  0  0  0  0  0  0
   -5.1491    6.8396  -18.0053 C   0  0  0  0  0  0  0  0  0  0  0  0
   -3.7394    6.7841  -17.8873 C   0  0  0  0  0  0  0  0  0  0  0  0
   -3.3108    7.9836  -18.3874 C   0  0  0  0  0  0  0  0  0  0  0  0
   -4.3771    8.7226  -18.7746 O   0  0  0  0  0  0  0  0  0  0  0  0
   -5.5374    8.0164  -18.5310 N   0  0  0  0  0  0  0  0  0  0  0  0
   -6.9748    5.4443  -18.5639 N   0  0  0  0  0  0  0  0  0  0  0  0
   -7.9690    4.6104  -18.2093 C   0  0  0  0  0  0  0  0  0  0  0  0
  1  2  2  0
  2  3  1  0
  3  4  2  0
  4  5  1  0
  5  6  1  0
  6  7  2  0
  7  8  1  0
  8  9  1  0
  4 10  1  0
 10 11  2  0
 11  1  1  0
  9  5  2  0
M  END
>  <tags>  (40) 
openbind_xx01zvns2b_c1_knitwork_impure,BulkDock Fragalysis export,fragmenstein_placed,openbind_xx01zvns2b_c1_scaffolds

>  <placement_batch>  (40) 
openbind_xx01zvns2b_c1_knitwork_impure

>  <inspiration_score>  (40) 
None

>  <name>  (40) 
P55123

>  <HIPPO Pose ID>  (40) 
55123

>  <ref_pdb>  (40) 
Z1495a

>  <inchikey>  (40) 
URBZSYGIBWPLQH-UHFFFAOYSA-N

>  <alias>  (40) 
None

>  <ref_mols>  (40) 
Z0425a,Z0788a,Z1495a,Z0465a

>  <subsites>  (40) 
1 - Z4590/B/203/1

>  <distance_score>  (40) 
0.892035

>  <HIPPO Compound ID>  (40) 
60248

>  <smiles>  (40) 
c1ccc(-c2ccon2)nc1

>  <energy_score>  (40) 
-13.251242

$$$$
P55128
     RDKit          3D

 11 12  0  0  0  0  0  0  0  0999 V2000
   -8.2699    3.8011  -10.9153 C   0  0  0  0  0  0  0  0  0  0  0  0
   -8.1415    3.7382  -12.2943 C   0  0  0  0  0  0  0  0  0  0  0  0
   -7.8923    4.9181  -12.9946 C   0  0  0  0  0  0  0  0  0  0  0  0
   -7.6947    4.9046  -14.4274 C   0  0  0  0  0  0  0  0  0  0  0  0
   -8.5863    4.4723  -15.3819 C   0  0  0  0  0  0  0  0  0  0  0  0
   -7.9909    4.5934  -16.6015 O   0  0  0  0  0  0  0  0  0  0  0  0
   -6.7650    5.1016  -16.3110 C   0  0  0  0  0  0  0  0  0  0  0  0
   -6.5451    5.3471  -15.0383 N   0  0  0  0  0  0  0  0  0  0  0  0
   -7.7726    6.1113  -12.2824 C   0  0  0  0  0  0  0  0  0  0  0  0
   -7.9202    6.0735  -10.9048 C   0  0  0  0  0  0  0  0  0  0  0  0
   -8.1613    4.9461  -10.2033 N   0  0  0  0  0  0  0  0  0  0  0  0
  1  2  2  0
  2  3  1  0
  3  4  1  0
  4  5  2  0
  5  6  1  0
  6  7  1  0
  7  8  2  0
  3  9  2  0
  9 10  1  0
 10 11  2  0
 11  1  1  0
  8  4  1  0
M  END
>  <tags>  (41) 
openbind_xx01zvns2b_c1_knitwork_impure,BulkDock Fragalysis export,fragmenstein_placed,openbind_xx01zvns2b_c1_scaffolds

>  <placement_batch>  (41) 
openbind_xx01zvns2b_c1_knitwork_impure

>  <inspiration_score>  (41) 
None

>  <name>  (41) 
P55128

>  <HIPPO Pose ID>  (41) 
55128

>  <ref_pdb>  (41) 
Z1495a

>  <inchikey>  (41) 
AJFKBWMKSZUJEE-UHFFFAOYSA-N

>  <alias>  (41) 
None

>  <ref_mols>  (41) 
Z0425a,Z0788a,Z1495a,Z0465a

>  <subsites>  (41) 
1 - Z4590/B/203/1

>  <distance_score>  (41) 
0.900842

>  <HIPPO Compound ID>  (41) 
60262

>  <smiles>  (41) 
c1cc(-c2cocn2)ccn1

>  <energy_score>  (41) 
-14.358643

$$$$
P55279
     RDKit          3D

 12 12  0  0  0  0  0  0  0  0999 V2000
   -6.4739    4.8953  -16.6409 C   0  0  0  0  0  0  0  0  0  0  0  0
   -7.6594    4.6512  -15.7591 C   0  0  0  0  0  0  0  0  0  0  0  0
   -8.6811    4.0811  -16.1131 O   0  0  0  0  0  0  0  0  0  0  0  0
   -7.5707    5.2242  -14.3483 C   0  0  0  0  0  0  0  0  0  0  0  0
   -7.1064    6.2819  -14.1843 O   0  0  0  0  0  0  0  0  0  0  0  0
   -8.1258    4.2050  -13.3284 N   0  0  0  0  0  0  0  0  0  0  0  0
   -8.1380    4.2339  -11.9327 C   0  0  0  0  0  0  0  0  0  0  0  0
   -8.4228    3.0725  -11.2240 C   0  0  0  0  0  0  0  0  0  0  0  0
   -8.4276    3.1308   -9.8374 C   0  0  0  0  0  0  0  0  0  0  0  0
   -8.1939    4.2601   -9.1311 N   0  0  0  0  0  0  0  0  0  0  0  0
   -7.9196    5.3687   -9.8482 C   0  0  0  0  0  0  0  0  0  0  0  0
   -7.8715    5.4052  -11.2330 C   0  0  0  0  0  0  0  0  0  0  0  0
  1  2  1  0
  2  3  2  0
  2  4  1  0
  4  5  2  0
  4  6  1  0
  6  7  1  0
  7  8  2  0
  8  9  1  0
  9 10  2  0
 10 11  1  0
 11 12  2  0
 12  7  1  0
M  END
>  <tags>  (42) 
openbind_xx01zvns2b_c1_knitwork_impure,fragmenstein_placed,openbind_xx01zvns2b_c1_scaffolds_chemok_bbok,BulkDock Fragalysis export,openbind_xx01zvns2b_c1_scaffolds

>  <placement_batch>  (42) 
openbind_xx01zvns2b_c1_knitwork_impure

>  <inspiration_score>  (42) 
None

>  <name>  (42) 
P55279

>  <HIPPO Pose ID>  (42) 
55279

>  <ref_pdb>  (42) 
Z1274a

>  <inchikey>  (42) 
MONDYMAFJSQOQH-UHFFFAOYSA-N

>  <alias>  (42) 
None

>  <ref_mols>  (42) 
Z1046b,Z1274a

>  <subsites>  (42) 
1 - Z4590/B/203/1

>  <distance_score>  (42) 
0.913532

>  <HIPPO Compound ID>  (42) 
63019

>  <smiles>  (42) 
CC(=O)C(=O)Nc1ccncc1

>  <energy_score>  (42) 
-16.51332

$$$$
P55295
     RDKit          3D

 10 11  0  0  0  0  0  0  0  0999 V2000
   -7.3886    5.8588  -11.5669 C   0  0  0  0  0  0  0  0  0  0  0  0
   -8.1672    4.7284  -11.5941 C   0  0  0  0  0  0  0  0  0  0  0  0
   -8.2405    4.3697  -12.9149 N   0  0  0  0  0  0  0  0  0  0  0  0
   -7.4966    5.2776  -13.6252 C   0  0  0  0  0  0  0  0  0  0  0  0
   -7.2622    5.2628  -15.1576 C   0  0  0  0  0  0  0  0  0  0  0  0
   -6.3388    6.1141  -15.8222 C   0  0  0  0  0  0  0  0  0  0  0  0
   -6.2345    5.9939  -17.1437 N   0  0  0  0  0  0  0  0  0  0  0  0
   -7.2808    4.7942  -17.6298 S   0  0  0  0  0  0  0  0  0  0  0  0
   -7.8914    4.4423  -16.0634 C   0  0  0  0  0  0  0  0  0  0  0  0
   -6.9721    6.1892  -12.8291 N   0  0  0  0  0  0  0  0  0  0  0  0
  1  2  2  0
  2  3  1  0
  3  4  1  0
  4  5  1  0
  5  6  1  0
  6  7  2  0
  7  8  1  0
  8  9  1  0
  4 10  2  0
 10  1  1  0
  9  5  2  0
M  END
>  <tags>  (43) 
openbind_xx01zvns2b_c1_knitwork_impure,fragmenstein_placed,openbind_xx01zvns2b_c1_scaffolds_chemok_bbok,BulkDock Fragalysis export,openbind_xx01zvns2b_c1_scaffolds

>  <placement_batch>  (43) 
openbind_xx01zvns2b_c1_knitwork_impure

>  <inspiration_score>  (43) 
None

>  <name>  (43) 
P55295

>  <HIPPO Pose ID>  (43) 
55295

>  <ref_pdb>  (43) 
Z1688a

>  <inchikey>  (43) 
KNKHUSYKRHIHGU-UHFFFAOYSA-N

>  <alias>  (43) 
None

>  <ref_mols>  (43) 
Z0852a,Z1688a,Z0673a

>  <subsites>  (43) 
1 - Z4590/B/203/1

>  <distance_score>  (43) 
0.790473

>  <HIPPO Compound ID>  (43) 
59689

>  <smiles>  (43) 
c1c[nH]c(-c2cnsc2)n1

>  <energy_score>  (43) 
-27.645632

$$$$
P55370
     RDKit          3D

 18 20  0  0  0  0  0  0  0  0999 V2000
   -5.2810    6.8127  -15.4784 C   0  0  0  0  0  0  0  0  0  0  0  0
   -5.3288    5.3914  -15.5230 O   0  0  0  0  0  0  0  0  0  0  0  0
   -6.4568    4.9521  -16.1434 C   0  0  0  0  0  0  0  0  0  0  0  0
   -7.5486    4.6847  -15.2981 C   0  0  0  0  0  0  0  0  0  0  0  0
   -8.7543    4.1805  -15.8022 C   0  0  0  0  0  0  0  0  0  0  0  0
   -8.8936    3.9185  -17.1584 C   0  0  0  0  0  0  0  0  0  0  0  0
   -7.7907    4.1479  -17.9541 C   0  0  0  0  0  0  0  0  0  0  0  0
   -7.7005    3.8793  -19.3066 N   0  0  0  0  0  0  0  0  0  0  0  0
   -6.4211    4.2125  -19.7568 C   0  0  0  0  0  0  0  0  0  0  0  0
   -6.0441    4.0028  -20.9040 O   0  0  0  0  0  0  0  0  0  0  0  0
   -5.7088    4.7329  -18.6351 N   0  0  0  0  0  0  0  0  0  0  0  0
   -4.3427    5.1023  -18.6441 C   0  0  0  0  0  0  0  0  0  0  0  0
   -3.6706    5.3030  -19.8518 C   0  0  0  0  0  0  0  0  0  0  0  0
   -2.2999    5.5747  -19.8666 C   0  0  0  0  0  0  0  0  0  0  0  0
   -1.6094    5.6592  -18.6729 C   0  0  0  0  0  0  0  0  0  0  0  0
   -2.3333    5.4894  -17.5153 C   0  0  0  0  0  0  0  0  0  0  0  0
   -3.6594    5.2281  -17.4888 N   0  0  0  0  0  0  0  0  0  0  0  0
   -6.5653    4.6584  -17.4958 C   0  0  0  0  0  0  0  0  0  0  0  0
  1  2  1  0
  2  3  1  0
  3  4  2  0
  4  5  1  0
  5  6  2  0
  6  7  1  0
  7  8  1  0
  8  9  1  0
  9 10  2  0
  9 11  1  0
 11 12  1  0
 12 13  2  0
 13 14  1  0
 14 15  2  0
 15 16  1  0
 16 17  2  0
 11 18  1  0
 18  3  1  0
 18  7  2  0
 17 12  1  0
M  END
>  <tags>  (44) 
openbind_xx01zvns2b_c1_knitwork_impure,fragmenstein_placed,openbind_xx01zvns2b_c1_scaffolds_chemok_bbok,BulkDock Fragalysis export,openbind_xx01zvns2b_c1_scaffolds

>  <placement_batch>  (44) 
openbind_xx01zvns2b_c1_knitwork_impure

>  <inspiration_score>  (44) 
None

>  <name>  (44) 
P55370

>  <HIPPO Pose ID>  (44) 
55370

>  <ref_pdb>  (44) 
Z4245a

>  <inchikey>  (44) 
SSQXEGUSCBNAGD-UHFFFAOYSA-N

>  <alias>  (44) 
None

>  <ref_mols>  (44) 
Z0852a,Z4245a

>  <subsites>  (44) 
1 - Z4590/B/203/1

>  <distance_score>  (44) 
0.637493

>  <HIPPO Compound ID>  (44) 
48867

>  <smiles>  (44) 
COc1cccc2[nH]c(=O)n(-c3ccccn3)c12

>  <energy_score>  (44) 
-25.908971

$$$$
P55618
     RDKit          3D

 23 26  0  0  0  0  0  0  0  0999 V2000
   -6.9155    7.1139  -13.5942 O   0  0  0  0  0  0  0  0  0  0  0  0
   -6.5729    6.0624  -13.2146 C   0  0  0  0  0  0  0  0  0  0  0  0
   -5.3702    5.3398  -13.8384 C   0  0  0  0  0  0  0  0  0  0  0  0
   -5.5382    5.2038  -15.3208 C   0  0  0  0  0  0  0  0  0  0  0  0
   -4.4897    5.4071  -16.1367 N   0  0  0  0  0  0  0  0  0  0  0  0
   -4.9697    5.2069  -17.4248 O   0  0  0  0  0  0  0  0  0  0  0  0
   -6.2886    4.8731  -17.3740 C   0  0  0  0  0  0  0  0  0  0  0  0
   -7.1148    4.5970  -18.4582 C   0  0  0  0  0  0  0  0  0  0  0  0
   -8.4476    4.2859  -18.1655 C   0  0  0  0  0  0  0  0  0  0  0  0
   -8.9046    4.2405  -16.8482 C   0  0  0  0  0  0  0  0  0  0  0  0
   -8.0420    4.5078  -15.7762 C   0  0  0  0  0  0  0  0  0  0  0  0
   -6.7038    4.8435  -16.0545 C   0  0  0  0  0  0  0  0  0  0  0  0
   -7.2124    5.1145  -12.1604 N   0  0  0  0  0  0  0  0  0  0  0  0
   -8.4424    5.2249  -11.4365 C   0  0  0  0  0  0  0  0  0  0  0  0
   -8.2781    5.0841   -9.9753 C   0  0  0  0  0  0  0  0  0  0  0  0
   -8.0739    6.1239   -9.0345 C   0  0  0  0  0  0  0  0  0  0  0  0
   -8.1549    5.7070   -7.7672 N   0  0  0  0  0  0  0  0  0  0  0  0
   -8.4300    4.3974   -7.8939 N   0  0  0  0  0  0  0  0  0  0  0  0
   -8.4574    3.9587   -9.1880 C   0  0  0  0  0  0  0  0  0  0  0  0
   -8.7742    2.5417   -9.5050 C   0  0  0  0  0  0  0  0  0  0  0  0
   -8.7556    1.6881   -8.3227 N   0  0  0  0  0  0  0  0  0  0  0  0
   -9.4251    2.2911   -7.1746 C   0  0  0  0  0  0  0  0  0  0  0  0
   -8.7433    3.5824   -6.7353 C   0  0  0  0  0  0  0  0  0  0  0  0
  1  2  2  0
  2  3  1  0
  3  4  1  0
  4  5  2  0
  5  6  1  0
  6  7  1  0
  7  8  2  0
  8  9  1  0
  9 10  2  0
 10 11  1  0
 11 12  2  0
  2 13  1  0
 13 14  1  0
 14 15  1  0
 15 16  1  0
 16 17  2  0
 17 18  1  0
 18 19  1  0
 19 20  1  0
 20 21  1  0
 21 22  1  0
 22 23  1  0
 12  4  1  0
 19 15  2  0
 12  7  1  0
 23 18  1  0
M  END
>  <tags>  (45) 
openbind_xx01zvns2b_c1_knitwork_impure,BulkDock Fragalysis export,fragmenstein_placed,openbind_xx01zvns2b_c1_scaffolds

>  <placement_batch>  (45) 
openbind_xx01zvns2b_c1_knitwork_impure

>  <inspiration_score>  (45) 
None

>  <name>  (45) 
P55618

>  <HIPPO Pose ID>  (45) 
55618

>  <ref_pdb>  (45) 
Z0969a

>  <inchikey>  (45) 
HBRZVPZVWAKGHA-UHFFFAOYSA-N

>  <alias>  (45) 
None

>  <ref_mols>  (45) 
Z0969a,Z0727a,Z1745a

>  <subsites>  (45) 
1 - Z4590/B/203/1

>  <distance_score>  (45) 
0.534931

>  <HIPPO Compound ID>  (45) 
63694

>  <smiles>  (45) 
O=C(Cc1noc2ccccc12)NCc1cnn2c1CNCC2

>  <energy_score>  (45) 
-20.413577

$$$$
P55651
     RDKit          3D

 22 25  0  0  0  0  0  0  0  0999 V2000
   -9.2663    5.5424  -14.5964 O   0  0  0  0  0  0  0  0  0  0  0  0
   -8.3081    5.1430  -14.0669 C   0  0  0  0  0  0  0  0  0  0  0  0
   -6.9244    4.7781  -14.6443 N   0  0  0  0  0  0  0  0  0  0  0  0
   -6.4303    4.9102  -15.9044 C   0  0  0  0  0  0  0  0  0  0  0  0
   -7.2775    4.8836  -17.0896 C   0  0  0  0  0  0  0  0  0  0  0  0
   -6.7549    4.9994  -18.3320 C   0  0  0  0  0  0  0  0  0  0  0  0
   -5.3542    5.2264  -18.5012 C   0  0  0  0  0  0  0  0  0  0  0  0
   -4.5965    5.4351  -19.5669 N   0  0  0  0  0  0  0  0  0  0  0  0
   -3.3365    5.6855  -19.0976 C   0  0  0  0  0  0  0  0  0  0  0  0
   -3.3207    5.5946  -17.7372 C   0  0  0  0  0  0  0  0  0  0  0  0
   -2.0740    5.8798  -16.6239 Cl  0  0  0  0  0  0  0  0  0  0  0  0
   -4.5894    5.2711  -17.3384 N   0  0  0  0  0  0  0  0  0  0  0  0
   -5.1082    5.0704  -16.0661 C   0  0  0  0  0  0  0  0  0  0  0  0
   -8.2869    4.9619  -12.6069 C   0  0  0  0  0  0  0  0  0  0  0  0
   -8.3255    6.0854  -11.7823 C   0  0  0  0  0  0  0  0  0  0  0  0
   -8.2770    6.0650  -10.4249 N   0  0  0  0  0  0  0  0  0  0  0  0
   -8.2340    4.8092   -9.9019 C   0  0  0  0  0  0  0  0  0  0  0  0
   -8.2153    4.3692   -8.5596 C   0  0  0  0  0  0  0  0  0  0  0  0
   -8.1760    2.9924   -8.6079 C   0  0  0  0  0  0  0  0  0  0  0  0
   -8.1585    2.5579   -9.8957 O   0  0  0  0  0  0  0  0  0  0  0  0
   -8.1997    3.6600  -10.6829 C   0  0  0  0  0  0  0  0  0  0  0  0
   -8.2045    3.6817  -12.0672 C   0  0  0  0  0  0  0  0  0  0  0  0
  1  2  2  0
  2  3  1  0
  3  4  1  0
  4  5  1  0
  5  6  2  0
  6  7  1  0
  7  8  2  0
  8  9  1  0
  9 10  2  0
 10 11  1  0
 10 12  1  0
 12 13  1  0
  2 14  1  0
 14 15  2  0
 15 16  1  0
 16 17  2  0
 17 18  1  0
 18 19  2  0
 19 20  1  0
 20 21  1  0
 21 22  2  0
 13  4  2  0
 22 14  1  0
 12  7  1  0
 21 17  1  0
M  END
>  <tags>  (46) 
openbind_xx01zvns2b_c1_knitwork_impure,BulkDock Fragalysis export,fragmenstein_placed,openbind_xx01zvns2b_c1_scaffolds

>  <placement_batch>  (46) 
openbind_xx01zvns2b_c1_knitwork_impure

>  <inspiration_score>  (46) 
None

>  <name>  (46) 
P55651

>  <HIPPO Pose ID>  (46) 
55651

>  <ref_pdb>  (46) 
Z1495a

>  <inchikey>  (46) 
MAUAUKHBEYCCLI-UHFFFAOYSA-N

>  <alias>  (46) 
None

>  <ref_mols>  (46) 
Z1495a,Z0773b,Z0773a

>  <subsites>  (46) 
1 - Z4590/B/203/1,5 - Z0773/B/401/1

>  <distance_score>  (46) 
0.825126

>  <HIPPO Compound ID>  (46) 
63741

>  <smiles>  (46) 
O=C(Nc1ccc2ncc(Cl)n2c1)c1cnc2ccoc2c1

>  <energy_score>  (46) 
-3.163708

$$$$
P55659
     RDKit          3D

 22 25  0  0  0  0  0  0  0  0999 V2000
   -8.6801    2.3316   -7.2352 C   0  0  0  0  0  0  0  0  0  0  0  0
   -8.5016    3.1921   -8.4242 C   0  0  0  0  0  0  0  0  0  0  0  0
   -8.6056    2.8219   -9.7439 C   0  0  0  0  0  0  0  0  0  0  0  0
   -8.3756    3.9467  -10.4728 N   0  0  0  0  0  0  0  0  0  0  0  0
   -8.3867    4.1145  -11.8478 C   0  0  0  0  0  0  0  0  0  0  0  0
   -8.2169    5.3530  -12.3368 C   0  0  0  0  0  0  0  0  0  0  0  0
   -8.4236    5.5270  -13.7888 C   0  0  0  0  0  0  0  0  0  0  0  0
   -9.4485    5.8651  -14.2323 O   0  0  0  0  0  0  0  0  0  0  0  0
   -7.1015    5.1420  -14.4968 N   0  0  0  0  0  0  0  0  0  0  0  0
   -6.8080    5.0072  -15.8479 C   0  0  0  0  0  0  0  0  0  0  0  0
   -5.4839    5.1734  -16.2846 C   0  0  0  0  0  0  0  0  0  0  0  0
   -5.1684    5.1455  -17.6482 C   0  0  0  0  0  0  0  0  0  0  0  0
   -6.1518    4.9089  -18.6132 C   0  0  0  0  0  0  0  0  0  0  0  0
   -7.4314    4.6603  -18.1381 C   0  0  0  0  0  0  0  0  0  0  0  0
   -8.5423    4.3494  -18.8650 O   0  0  0  0  0  0  0  0  0  0  0  0
   -9.5173    4.2317  -17.9255 C   0  0  0  0  0  0  0  0  0  0  0  0
   -9.1214    4.3752  -16.6833 N   0  0  0  0  0  0  0  0  0  0  0  0
   -7.7932    4.6982  -16.8025 C   0  0  0  0  0  0  0  0  0  0  0  0
   -7.9932    6.4708  -11.4357 C   0  0  0  0  0  0  0  0  0  0  0  0
   -7.9625    6.2830  -10.1009 C   0  0  0  0  0  0  0  0  0  0  0  0
   -8.1665    4.9777   -9.5650 C   0  0  0  0  0  0  0  0  0  0  0  0
   -8.2275    4.5424   -8.3232 N   0  0  0  0  0  0  0  0  0  0  0  0
  1  2  1  0
  2  3  2  0
  3  4  1  0
  4  5  1  0
  5  6  2  0
  6  7  1  0
  7  8  2  0
  7  9  1  0
  9 10  1  0
 10 11  2  0
 11 12  1  0
 12 13  2  0
 13 14  1  0
 14 15  1  0
 15 16  1  0
 16 17  2  0
 17 18  1  0
  6 19  1  0
 19 20  2  0
 20 21  1  0
 21 22  2  0
 22  2  1  0
 21  4  1  0
 18 10  1  0
 18 14  2  0
M  END
>  <tags>  (47) 
openbind_xx01zvns2b_c1_knitwork_impure,fragmenstein_placed,openbind_xx01zvns2b_c1_scaffolds_chemok_bbok,BulkDock Fragalysis export,openbind_xx01zvns2b_c1_scaffolds

>  <placement_batch>  (47) 
openbind_xx01zvns2b_c1_knitwork_impure

>  <inspiration_score>  (47) 
None

>  <name>  (47) 
P55659

>  <HIPPO Pose ID>  (47) 
55659

>  <ref_pdb>  (47) 
Z1495a

>  <inchikey>  (47) 
IQUCFZLMNVFDEU-UHFFFAOYSA-N

>  <alias>  (47) 
None

>  <ref_mols>  (47) 
Z1495a,Z0773b,Z0773a

>  <subsites>  (47) 
1 - Z4590/B/203/1,5 - Z0773/B/401/1

>  <distance_score>  (47) 
0.5973

>  <HIPPO Compound ID>  (47) 
63758

>  <smiles>  (47) 
Cc1cn2cc(C(=O)Nc3cccc4ocnc34)ccc2n1

>  <energy_score>  (47) 
-1.057754

$$$$
P55781
     RDKit          3D

 12 13  0  0  0  0  0  0  0  0999 V2000
   -6.2849    2.3248  -11.6873 C   0  0  0  0  0  0  0  0  0  0  0  0
   -7.2836    3.3110  -12.2721 C   0  0  0  0  0  0  0  0  0  0  0  0
   -7.0221    3.5845  -13.7604 C   0  0  0  0  0  0  0  0  0  0  0  0
   -7.8370    4.7216  -14.1861 N   0  0  0  0  0  0  0  0  0  0  0  0
   -7.7885    5.0808  -15.6229 C   0  0  2  0  0  0  0  0  0  0  0  0
   -8.9856    4.4768  -16.3732 C   0  0  0  0  0  0  0  0  0  0  0  0
   -8.8696    4.4904  -17.8955 C   0  0  0  0  0  0  0  0  0  0  0  0
   -7.9548    5.5251  -18.3488 N   0  0  0  0  0  0  0  0  0  0  0  0
   -6.5901    5.3227  -17.8357 C   0  0  0  0  0  0  0  0  0  0  0  0
   -5.5224    4.8572  -18.7989 C   0  0  0  0  0  0  0  0  0  0  0  0
   -5.5483    6.2846  -18.3650 C   0  0  0  0  0  0  0  0  0  0  0  0
   -6.4719    4.8742  -16.3808 C   0  0  0  0  0  0  0  0  0  0  0  0
  1  2  1  0
  2  3  1  0
  3  4  1  0
  5  4  1  1
  5  6  1  0
  6  7  1  0
  7  8  1  0
  8  9  1  0
  9 10  1  0
 10 11  1  0
  9 12  1  0
 12  5  1  0
 11  9  1  0
M  END
>  <tags>  (48) 
openbind_xx01zvns2b_c1_knitwork_impure,fragmenstein_placed,openbind_xx01zvns2b_c1_scaffolds_chemok_bbok,BulkDock Fragalysis export,openbind_xx01zvns2b_c1_scaffolds

>  <placement_batch>  (48) 
openbind_xx01zvns2b_c1_knitwork_impure

>  <inspiration_score>  (48) 
None

>  <name>  (48) 
P55781

>  <HIPPO Pose ID>  (48) 
55781

>  <ref_pdb>  (48) 
Z0472a

>  <inchikey>  (48) 
VBJWJVRSVRXLIO-UHFFFAOYSA-N

>  <alias>  (48) 
None

>  <ref_mols>  (48) 
Z1729a,Z0472a

>  <subsites>  (48) 
1 - Z4590/B/203/1

>  <distance_score>  (48) 
0.887147

>  <HIPPO Compound ID>  (48) 
63971

>  <smiles>  (48) 
CCCN[C@@H]1CCNC2(CC2)C1

>  <energy_score>  (48) 
-19.528666

$$$$
P55794
     RDKit          3D

 10 10  0  0  0  0  0  0  0  0999 V2000
   -2.8699    5.1610  -18.2735 C   0  0  0  0  0  0  0  0  0  0  0  0
   -3.1927    5.9313  -16.9868 C   0  0  2  0  0  0  0  0  0  0  0  0
   -2.4247    5.3582  -15.7746 C   0  0  0  0  0  0  0  0  0  0  0  0
   -2.9212    4.0888  -15.2595 N   0  0  0  0  0  0  0  0  0  0  0  0
   -4.7080    6.0975  -16.6904 C   0  0  2  0  0  0  0  0  0  0  0  0
   -5.3806    4.8073  -16.5705 N   0  0  0  0  0  0  0  0  0  0  0  0
   -6.8296    4.9008  -16.6074 C   0  0  0  0  0  0  0  0  0  0  0  0
   -7.2820    5.0871  -18.0530 C   0  0  0  0  0  0  0  0  0  0  0  0
   -6.3275    5.9227  -18.8999 C   0  0  0  0  0  0  0  0  0  0  0  0
   -5.4700    7.1999  -17.9360 S   0  0  0  0  0  0  0  0  0  0  0  0
  2  1  1  6
  2  3  1  0
  3  4  1  0
  2  5  1  0
  5  6  1  6
  6  7  1  0
  7  8  1  0
  8  9  1  0
  9 10  1  0
 10  5  1  0
M  END
>  <tags>  (49) 
openbind_xx01zvns2b_c1_knitwork_impure,BulkDock Fragalysis export,fragmenstein_placed,openbind_xx01zvns2b_c1_scaffolds

>  <placement_batch>  (49) 
openbind_xx01zvns2b_c1_knitwork_impure

>  <inspiration_score>  (49) 
None

>  <name>  (49) 
P55794

>  <HIPPO Pose ID>  (49) 
55794

>  <ref_pdb>  (49) 
Z0472a

>  <inchikey>  (49) 
IUGHJGVFPNPIPH-UHFFFAOYSA-N

>  <alias>  (49) 
None

>  <ref_mols>  (49) 
Z1729a,Z0472a

>  <subsites>  (49) 
1 - Z4590/B/203/1

>  <distance_score>  (49) 
0.960661

>  <HIPPO Compound ID>  (49) 
63994

>  <smiles>  (49) 
C[C@H](CN)[C@@H]1NCCCS1

>  <energy_score>  (49) 
-22.720467

$$$$
P55795
     RDKit          3D

 10 10  0  0  0  0  0  0  0  0999 V2000
   -2.4944    5.9868  -18.9287 C   0  0  0  0  0  0  0  0  0  0  0  0
   -2.7017    4.9618  -17.8215 C   0  0  0  0  0  0  0  0  0  0  0  0
   -3.2237    5.5121  -16.4769 C   0  0  2  0  0  0  0  0  0  0  0  0
   -2.8391    4.5047  -15.4456 N   0  0  0  0  0  0  0  0  0  0  0  0
   -4.7719    5.8238  -16.3826 C   0  0  2  0  0  0  0  0  0  0  0  0
   -5.5537    4.5906  -16.1924 N   0  0  0  0  0  0  0  0  0  0  0  0
   -6.9882    4.7832  -16.3910 C   0  0  0  0  0  0  0  0  0  0  0  0
   -7.3244    4.9273  -17.8741 C   0  0  0  0  0  0  0  0  0  0  0  0
   -6.2425    5.6152  -18.6926 C   0  0  0  0  0  0  0  0  0  0  0  0
   -5.3982    6.8917  -17.7167 S   0  0  0  0  0  0  0  0  0  0  0  0
  1  2  1  0
  2  3  1  0
  3  4  1  1
  3  5  1  0
  5  6  1  6
  6  7  1  0
  7  8  1  0
  8  9  1  0
  9 10  1  0
 10  5  1  0
M  END
>  <tags>  (50) 
openbind_xx01zvns2b_c1_knitwork_impure,BulkDock Fragalysis export,fragmenstein_placed,openbind_xx01zvns2b_c1_scaffolds

>  <placement_batch>  (50) 
openbind_xx01zvns2b_c1_knitwork_impure

>  <inspiration_score>  (50) 
None

>  <name>  (50) 
P55795

>  <HIPPO Pose ID>  (50) 
55795

>  <ref_pdb>  (50) 
Z0472a

>  <inchikey>  (50) 
KIWHRBIJBOKCHL-UHFFFAOYSA-N

>  <alias>  (50) 
None

>  <ref_mols>  (50) 
Z1729a,Z0472a

>  <subsites>  (50) 
1 - Z4590/B/203/1

>  <distance_score>  (50) 
0.908065

>  <HIPPO Compound ID>  (50) 
63995

>  <smiles>  (50) 
CC[C@H](N)[C@@H]1NCCCS1

>  <energy_score>  (50) 
-20.793909

$$$$
P55811
     RDKit          3D

 13 14  0  0  0  0  0  0  0  0999 V2000
   -2.9778    6.3173  -21.3453 N   0  0  0  0  0  0  0  0  0  0  0  0
   -3.7269    5.7705  -20.2055 C   0  0  0  0  0  0  0  0  0  0  0  0
   -3.1141    6.1641  -18.8626 C   0  0  0  0  0  0  0  0  0  0  0  0
   -3.4979    5.2076  -17.7341 C   0  0  0  0  0  0  0  0  0  0  0  0
   -4.9327    5.1478  -17.3811 C   0  0  0  0  0  0  0  0  0  0  0  0
   -5.4662    5.1143  -16.1755 N   0  0  0  0  0  0  0  0  0  0  0  0
   -6.7835    4.8256  -16.4274 C   0  0  0  0  0  0  0  0  0  0  0  0
   -7.8452    4.5772  -15.5594 C   0  0  0  0  0  0  0  0  0  0  0  0
   -9.0862    4.2807  -16.1335 C   0  0  0  0  0  0  0  0  0  0  0  0
   -9.2844    4.2532  -17.5180 C   0  0  0  0  0  0  0  0  0  0  0  0
   -8.2270    4.4932  -18.3933 C   0  0  0  0  0  0  0  0  0  0  0  0
   -7.0053    4.7621  -17.7931 C   0  0  0  0  0  0  0  0  0  0  0  0
   -5.8131    4.9719  -18.4111 O   0  0  0  0  0  0  0  0  0  0  0  0
  1  2  1  0
  2  3  1  0
  3  4  1  0
  4  5  1  0
  5  6  2  0
  6  7  1  0
  7  8  2  0
  8  9  1  0
  9 10  2  0
 10 11  1  0
 11 12  2  0
 12 13  1  0
 13  5  1  0
 12  7  1  0
M  END
>  <tags>  (51) 
openbind_xx01zvns2b_c1_knitwork_impure,fragmenstein_placed,openbind_xx01zvns2b_c1_scaffolds_chemok_bbok,BulkDock Fragalysis export,openbind_xx01zvns2b_c1_scaffolds

>  <placement_batch>  (51) 
openbind_xx01zvns2b_c1_knitwork_impure

>  <inspiration_score>  (51) 
None

>  <name>  (51) 
P55811

>  <HIPPO Pose ID>  (51) 
55811

>  <ref_pdb>  (51) 
Z0472a

>  <inchikey>  (51) 
DJDBCDKBTQCNTO-UHFFFAOYSA-N

>  <alias>  (51) 
None

>  <ref_mols>  (51) 
Z1729a,Z4008a,Z0472a

>  <subsites>  (51) 
1 - Z4590/B/203/1

>  <distance_score>  (51) 
0.483698

>  <HIPPO Compound ID>  (51) 
58666

>  <smiles>  (51) 
NCCCc1nc2ccccc2o1

>  <energy_score>  (51) 
-13.790889

$$$$
P55820
     RDKit          3D

 13 14  0  0  0  0  0  0  0  0999 V2000
   -0.9218    5.5120  -19.4031 C   0  0  0  0  0  0  0  0  0  0  0  0
   -1.3932    6.2312  -18.1451 C   0  0  0  0  0  0  0  0  0  0  0  0
   -2.6627    5.6284  -17.5405 C   0  0  0  0  0  0  0  0  0  0  0  0
   -3.7967    5.8512  -18.4014 N   0  0  0  0  0  0  0  0  0  0  0  0
   -5.0154    5.4289  -18.0073 C   0  0  0  0  0  0  0  0  0  0  0  0
   -5.4269    5.2363  -16.7787 N   0  0  0  0  0  0  0  0  0  0  0  0
   -6.7692    4.8788  -16.8018 C   0  0  0  0  0  0  0  0  0  0  0  0
   -7.5787    4.6291  -15.6817 C   0  0  0  0  0  0  0  0  0  0  0  0
   -8.9302    4.3354  -15.8721 C   0  0  0  0  0  0  0  0  0  0  0  0
   -9.4827    4.2644  -17.1476 C   0  0  0  0  0  0  0  0  0  0  0  0
   -8.6950    4.4754  -18.2719 C   0  0  0  0  0  0  0  0  0  0  0  0
   -7.3459    4.7893  -18.0692 C   0  0  0  0  0  0  0  0  0  0  0  0
   -6.1566    5.1269  -19.2405 S   0  0  0  0  0  0  0  0  0  0  0  0
  1  2  1  0
  2  3  1  0
  3  4  1  0
  4  5  1  0
  5  6  2  0
  6  7  1  0
  7  8  2  0
  8  9  1  0
  9 10  2  0
 10 11  1  0
 11 12  2  0
 12 13  1  0
 13  5  1  0
 12  7  1  0
M  END
>  <tags>  (52) 
openbind_xx01zvns2b_c1_knitwork_impure,fragmenstein_placed,openbind_xx01zvns2b_c1_scaffolds_chemok_bbok,BulkDock Fragalysis export,openbind_xx01zvns2b_c1_scaffolds

>  <placement_batch>  (52) 
openbind_xx01zvns2b_c1_knitwork_impure

>  <inspiration_score>  (52) 
None

>  <name>  (52) 
P55820

>  <HIPPO Pose ID>  (52) 
55820

>  <ref_pdb>  (52) 
Z0472a

>  <inchikey>  (52) 
GYOABOCBMBUFQN-UHFFFAOYSA-N

>  <alias>  (52) 
None

>  <ref_mols>  (52) 
Z1729a,Z0472a

>  <subsites>  (52) 
1 - Z4590/B/203/1

>  <distance_score>  (52) 
0.870779

>  <HIPPO Compound ID>  (52) 
58690

>  <smiles>  (52) 
CCCNc1nc2ccccc2s1

>  <energy_score>  (52) 
-83.91943

$$$$
P55837
     RDKit          3D

 20 22  0  0  0  0  0  0  0  0999 V2000
   -5.5767    6.9499  -13.8129 C   0  0  0  0  0  0  0  0  0  0  0  0
   -4.7748    5.9228  -14.6124 C   0  0  1  0  0  0  0  0  0  0  0  0
   -4.3859    4.6993  -13.8141 C   0  0  0  0  0  0  0  0  0  0  0  0
   -3.3112    4.1227  -13.9047 O   0  0  0  0  0  0  0  0  0  0  0  0
   -5.3435    4.2360  -12.9895 O   0  0  0  0  0  0  0  0  0  0  0  0
   -5.3849    5.5592  -15.8883 N   0  0  0  0  0  0  0  0  0  0  0  0
   -4.8348    5.7771  -17.1403 C   0  0  0  0  0  0  0  0  0  0  0  0
   -3.4984    6.4151  -17.4163 C   0  0  1  0  0  0  0  0  0  0  0  0
   -2.3220    5.5145  -17.0542 C   0  0  0  0  0  0  0  0  0  0  0  0
   -1.4021    5.5902  -18.2562 C   0  0  0  0  0  0  0  0  0  0  0  0
   -2.3744    5.7672  -19.3969 C   0  0  0  0  0  0  0  0  0  0  0  0
   -3.3501    6.7174  -18.8610 N   0  0  0  0  0  0  0  0  0  0  0  0
   -5.6745    5.4140  -18.0900 N   0  0  0  0  0  0  0  0  0  0  0  0
   -6.8031    4.9789  -17.4602 C   0  0  0  0  0  0  0  0  0  0  0  0
   -8.0159    4.5670  -18.0220 C   0  0  0  0  0  0  0  0  0  0  0  0
   -9.0640    4.2748  -17.1610 C   0  0  0  0  0  0  0  0  0  0  0  0
  -10.2909    4.1001  -17.6685 F   0  0  0  0  0  0  0  0  0  0  0  0
   -8.8921    4.2682  -15.7823 C   0  0  0  0  0  0  0  0  0  0  0  0
   -7.6757    4.6396  -15.2054 C   0  0  0  0  0  0  0  0  0  0  0  0
   -6.6527    5.0384  -16.0757 C   0  0  0  0  0  0  0  0  0  0  0  0
  2  1  1  1
  2  3  1  0
  3  4  2  0
  3  5  1  0
  2  6  1  0
  6  7  1  0
  8  7  1  6
  8  9  1  0
  9 10  1  0
 10 11  1  0
 11 12  1  0
  7 13  2  0
 13 14  1  0
 14 15  2  0
 15 16  1  0
 16 17  1  0
 16 18  2  0
 18 19  1  0
 19 20  2  0
 20  6  1  0
 12  8  1  0
 20 14  1  0
M  END
>  <tags>  (53) 
openbind_xx01zvns2b_c1_knitwork_impure,BulkDock Fragalysis export,fragmenstein_placed,openbind_xx01zvns2b_c1_scaffolds

>  <placement_batch>  (53) 
openbind_xx01zvns2b_c1_knitwork_impure

>  <inspiration_score>  (53) 
None

>  <name>  (53) 
P55837

>  <HIPPO Pose ID>  (53) 
55837

>  <ref_pdb>  (53) 
Z3476a

>  <inchikey>  (53) 
VLNJIWBFHXRPOX-UHFFFAOYSA-N

>  <alias>  (53) 
None

>  <ref_mols>  (53) 
Z3476a,Z0819a

>  <subsites>  (53) 
1 - Z4590/B/203/1

>  <distance_score>  (53) 
0.992341

>  <HIPPO Compound ID>  (53) 
58528

>  <smiles>  (53) 
C[C@@H](C(=O)O)n1c([C@H]2CCCN2)nc2cc(F)ccc21

>  <energy_score>  (53) 
-38.385936

$$$$
P55893
     RDKit          3D

 23 26  0  0  0  0  0  0  0  0999 V2000
   -7.8328    6.1558   -9.4047 C   0  0  0  0  0  0  0  0  0  0  0  0
   -8.1195    4.7512   -9.4038 N   0  0  0  0  0  0  0  0  0  0  0  0
   -8.2091    3.9075  -10.4844 C   0  0  0  0  0  0  0  0  0  0  0  0
   -7.9339    4.1483  -11.7911 N   0  0  0  0  0  0  0  0  0  0  0  0
   -7.2002    5.3325  -12.4615 C   0  0  0  0  0  0  0  0  0  0  0  0
   -6.6501    6.2483  -11.9881 O   0  0  0  0  0  0  0  0  0  0  0  0
   -7.3677    5.2276  -13.9156 C   0  0  0  0  0  0  0  0  0  0  0  0
   -8.4638    4.7554  -14.6027 C   0  0  0  0  0  0  0  0  0  0  0  0
   -8.3747    4.9068  -16.0188 C   0  0  0  0  0  0  0  0  0  0  0  0
   -7.1573    5.4699  -16.3744 C   0  0  0  0  0  0  0  0  0  0  0  0
   -6.1799    5.7999  -14.9982 S   0  0  0  0  0  0  0  0  0  0  0  0
   -6.6583    5.8565  -17.7363 C   0  0  0  0  0  0  0  0  0  0  0  0
   -6.9019    4.8122  -18.8109 C   0  0  0  0  0  0  0  0  0  0  0  0
   -8.3753    4.4789  -19.0507 C   0  0  0  0  0  0  0  0  0  0  0  0
   -8.9935    3.6864  -17.9973 N   0  0  0  0  0  0  0  0  0  0  0  0
   -9.5038    4.4870  -16.9131 C   0  0  0  0  0  0  0  0  0  0  0  0
   -8.7026    2.7487  -10.1252 N   0  0  0  0  0  0  0  0  0  0  0  0
   -8.8568    2.8003   -8.7705 C   0  0  0  0  0  0  0  0  0  0  0  0
   -9.3162    1.8168   -7.8888 C   0  0  0  0  0  0  0  0  0  0  0  0
   -9.4456    2.1295   -6.5342 C   0  0  0  0  0  0  0  0  0  0  0  0
   -9.0981    3.3914   -6.0561 C   0  0  0  0  0  0  0  0  0  0  0  0
   -8.6156    4.3800   -6.9185 C   0  0  0  0  0  0  0  0  0  0  0  0
   -8.5100    4.0515   -8.2786 C   0  0  0  0  0  0  0  0  0  0  0  0
  1  2  1  0
  2  3  1  0
  3  4  1  0
  4  5  1  0
  5  6  2  0
  5  7  1  0
  7  8  2  0
  8  9  1  0
  9 10  2  0
 10 11  1  0
 10 12  1  0
 12 13  1  0
 13 14  1  0
 14 15  1  0
 15 16  1  0
  3 17  2  0
 17 18  1  0
 18 19  2  0
 19 20  1  0
 20 21  2  0
 21 22  1  0
 22 23  2  0
 23  2  1  0
 11  7  1  0
 23 18  1  0
 16  9  1  0
M  END
>  <tags>  (54) 
openbind_xx01zvns2b_c1_knitwork_impure,BulkDock Fragalysis export,fragmenstein_placed,openbind_xx01zvns2b_c1_scaffolds

>  <placement_batch>  (54) 
openbind_xx01zvns2b_c1_knitwork_impure

>  <inspiration_score>  (54) 
None

>  <name>  (54) 
P55893

>  <HIPPO Pose ID>  (54) 
55893

>  <ref_pdb>  (54) 
Z0490a

>  <inchikey>  (54) 
FMPSPIMHGMQGIG-UHFFFAOYSA-N

>  <alias>  (54) 
None

>  <ref_mols>  (54) 
Z0490a,Z3515a

>  <subsites>  (54) 
1 - Z4590/B/203/1

>  <distance_score>  (54) 
0.997268

>  <HIPPO Compound ID>  (54) 
59378

>  <smiles>  (54) 
Cn1c(NC(=O)c2cc3c(s2)CCCNC3)nc2ccccc21

>  <energy_score>  (54) 
-33.792268

$$$$
P55921
     RDKit          3D

 22 24  0  0  0  0  0  0  0  0999 V2000
   -0.4490    9.2581  -23.4857 C   0  0  0  0  0  0  0  0  0  0  0  0
   -1.1868    8.2643  -23.9994 C   0  0  0  0  0  0  0  0  0  0  0  0
   -2.4786    8.4600  -24.7155 C   0  0  0  0  0  0  0  0  0  0  0  0
   -3.4802    7.9784  -23.8252 N   0  0  0  0  0  0  0  0  0  0  0  0
   -4.3500    8.7314  -22.7874 C   0  0  0  0  0  0  0  0  0  0  0  0
   -4.4343    9.8730  -22.5568 O   0  0  0  0  0  0  0  0  0  0  0  0
   -5.1182    7.6551  -22.0135 C   0  0  0  0  0  0  0  0  0  0  0  0
   -4.4845    7.2928  -20.7507 N   0  0  0  0  0  0  0  0  0  0  0  0
   -4.6211    8.2811  -19.6891 C   0  0  0  0  0  0  0  0  0  0  0  0
   -3.8854    7.8678  -18.4037 C   0  0  0  0  0  0  0  0  0  0  0  0
   -3.6896    6.3474  -18.2753 C   0  0  0  0  0  0  0  0  0  0  0  0
   -5.0010    5.6451  -17.9777 C   0  0  0  0  0  0  0  0  0  0  0  0
   -5.9992    5.1992  -18.8240 C   0  0  0  0  0  0  0  0  0  0  0  0
   -7.0989    4.7653  -18.0437 C   0  0  0  0  0  0  0  0  0  0  0  0
   -8.3955    4.3149  -18.3558 C   0  0  0  0  0  0  0  0  0  0  0  0
   -9.2750    4.0003  -17.3188 C   0  0  0  0  0  0  0  0  0  0  0  0
   -8.8631    4.1029  -15.9921 C   0  0  0  0  0  0  0  0  0  0  0  0
   -7.5742    4.5321  -15.6578 C   0  0  0  0  0  0  0  0  0  0  0  0
   -6.7169    4.8747  -16.7090 C   0  0  0  0  0  0  0  0  0  0  0  0
   -5.4261    5.3603  -16.6962 N   0  0  0  0  0  0  0  0  0  0  0  0
   -2.9845    5.7979  -19.5364 C   0  0  0  0  0  0  0  0  0  0  0  0
   -3.1792    6.6677  -20.7930 C   0  0  0  0  0  0  0  0  0  0  0  0
  1  2  2  0
  2  3  1  0
  3  4  1  0
  4  5  1  0
  5  6  2  0
  5  7  1  0
  7  8  1  0
  8  9  1  0
  9 10  1  0
 10 11  1  0
 11 12  1  0
 12 13  2  0
 13 14  1  0
 14 15  2  0
 15 16  1  0
 16 17  2  0
 17 18  1  0
 18 19  2  0
 19 20  1  0
 11 21  1  0
 21 22  1  0
 22  8  1  0
 20 12  1  0
 19 14  1  0
M  END
>  <tags>  (55) 
openbind_xx01zvns2b_c1_knitwork_impure,fragmenstein_placed,openbind_xx01zvns2b_c1_scaffolds_chemok_bbok,BulkDock Fragalysis export,openbind_xx01zvns2b_c1_scaffolds

>  <placement_batch>  (55) 
openbind_xx01zvns2b_c1_knitwork_impure

>  <inspiration_score>  (55) 
None

>  <name>  (55) 
P55921

>  <HIPPO Pose ID>  (55) 
55921

>  <ref_pdb>  (55) 
Z1729a

>  <inchikey>  (55) 
NVVXDBBCPYCMRN-UHFFFAOYSA-N

>  <alias>  (55) 
None

>  <ref_mols>  (55) 
Z1729a,Z2971a

>  <subsites>  (55) 
1 - Z4590/B/203/1

>  <distance_score>  (55) 
0.996785

>  <HIPPO Compound ID>  (55) 
64241

>  <smiles>  (55) 
C=CCNC(=O)CN1CCC(c2cc3ccccc3[nH]2)CC1

>  <energy_score>  (55) 
-17.576159

$$$$
P55927
     RDKit          3D

 21 23  0  0  0  0  0  0  0  0999 V2000
   -3.0752    8.2496  -25.3729 C   0  0  0  0  0  0  0  0  0  0  0  0
   -4.2969    8.8156  -24.6644 C   0  0  1  0  0  0  0  0  0  0  0  0
   -5.4682    8.7221  -25.5597 N   0  0  0  0  0  0  0  0  0  0  0  0
   -4.6194    8.1210  -23.3209 C   0  0  0  0  0  0  0  0  0  0  0  0
   -5.7961    7.9697  -22.9784 O   0  0  0  0  0  0  0  0  0  0  0  0
   -3.4009    7.7586  -22.4574 C   0  0  0  0  0  0  0  0  0  0  0  0
   -3.7136    7.1477  -21.1565 N   0  0  0  0  0  0  0  0  0  0  0  0
   -4.4318    8.0407  -20.2412 C   0  0  0  0  0  0  0  0  0  0  0  0
   -4.0380    7.8991  -18.7613 C   0  0  0  0  0  0  0  0  0  0  0  0
   -3.7796    6.4499  -18.3169 C   0  0  0  0  0  0  0  0  0  0  0  0
   -5.0706    5.7259  -18.0251 C   0  0  0  0  0  0  0  0  0  0  0  0
   -6.0531    5.2754  -18.8844 C   0  0  0  0  0  0  0  0  0  0  0  0
   -7.1432    4.8004  -18.1125 C   0  0  0  0  0  0  0  0  0  0  0  0
   -8.4286    4.3244  -18.4324 C   0  0  0  0  0  0  0  0  0  0  0  0
   -9.3054    3.9822  -17.4015 C   0  0  0  0  0  0  0  0  0  0  0  0
   -8.9002    4.0775  -16.0724 C   0  0  0  0  0  0  0  0  0  0  0  0
   -7.6201    4.5243  -15.7293 C   0  0  0  0  0  0  0  0  0  0  0  0
   -6.7679    4.8975  -16.7741 C   0  0  0  0  0  0  0  0  0  0  0  0
   -5.4876    5.4072  -16.7502 N   0  0  0  0  0  0  0  0  0  0  0  0
   -2.9123    5.6918  -19.3353 C   0  0  0  0  0  0  0  0  0  0  0  0
   -2.5321    6.5359  -20.5531 C   0  0  0  0  0  0  0  0  0  0  0  0
  2  1  1  6
  2  3  1  0
  2  4  1  0
  4  5  2  0
  4  6  1  0
  6  7  1  0
  7  8  1  0
  8  9  1  0
  9 10  1  0
 10 11  1  0
 11 12  2  0
 12 13  1  0
 13 14  2  0
 14 15  1  0
 15 16  2  0
 16 17  1  0
 17 18  2  0
 18 19  1  0
 10 20  1  0
 20 21  1  0
 21  7  1  0
 19 11  1  0
 18 13  1  0
M  END
>  <tags>  (56) 
openbind_xx01zvns2b_c1_knitwork_impure,fragmenstein_placed,openbind_xx01zvns2b_c1_scaffolds_chemok_bbok,BulkDock Fragalysis export,openbind_xx01zvns2b_c1_scaffolds

>  <placement_batch>  (56) 
openbind_xx01zvns2b_c1_knitwork_impure

>  <inspiration_score>  (56) 
None

>  <name>  (56) 
P55927

>  <HIPPO Pose ID>  (56) 
55927

>  <ref_pdb>  (56) 
Z1729a

>  <inchikey>  (56) 
GMOUCLXUKVRLIE-UHFFFAOYSA-N

>  <alias>  (56) 
None

>  <ref_mols>  (56) 
Z1729a,Z2971a

>  <subsites>  (56) 
1 - Z4590/B/203/1

>  <distance_score>  (56) 
0.665881

>  <HIPPO Compound ID>  (56) 
64255

>  <smiles>  (56) 
C[C@@H](N)C(=O)CN1CCC(c2cc3ccccc3[nH]2)CC1

>  <energy_score>  (56) 
-49.787096

$$$$
P56082
     RDKit          3D

 11 12  0  0  0  0  0  0  0  0999 V2000
   -8.8514    4.9901  -18.7825 C   0  0  0  0  0  0  0  0  0  0  0  0
   -9.6673    4.7473  -17.6891 C   0  0  0  0  0  0  0  0  0  0  0  0
   -9.0816    4.4655  -16.4594 C   0  0  0  0  0  0  0  0  0  0  0  0
   -7.6969    4.4391  -16.3575 C   0  0  0  0  0  0  0  0  0  0  0  0
   -7.0117    4.0152  -15.1432 C   0  0  0  0  0  0  0  0  0  0  0  0
   -5.6835    4.0947  -14.7704 C   0  0  0  0  0  0  0  0  0  0  0  0
   -5.4422    3.4295  -13.5927 N   0  0  0  0  0  0  0  0  0  0  0  0
   -6.6023    2.9268  -13.2438 C   0  0  0  0  0  0  0  0  0  0  0  0
   -7.5799    3.2663  -14.1343 N   0  0  0  0  0  0  0  0  0  0  0  0
   -6.8862    4.7327  -17.3996 N   0  0  0  0  0  0  0  0  0  0  0  0
   -7.4799    4.9779  -18.5918 C   0  0  0  0  0  0  0  0  0  0  0  0
  1  2  2  0
  2  3  1  0
  3  4  2  0
  4  5  1  0
  5  6  2  0
  6  7  1  0
  7  8  2  0
  8  9  1  0
  4 10  1  0
 10 11  2  0
 11  1  1  0
  9  5  1  0
M  END
>  <tags>  (57) 
openbind_xx01zvns2b_c1_knitwork_impure,BulkDock Fragalysis export,fragmenstein_placed,openbind_xx01zvns2b_c1_scaffolds

>  <placement_batch>  (57) 
openbind_xx01zvns2b_c1_knitwork_impure

>  <inspiration_score>  (57) 
None

>  <name>  (57) 
P56082

>  <HIPPO Pose ID>  (57) 
56082

>  <ref_pdb>  (57) 
Z0465a

>  <inchikey>  (57) 
ODACNUQYASNCRB-UHFFFAOYSA-N

>  <alias>  (57) 
None

>  <ref_mols>  (57) 
Z1688a,Z0719a,Z0465a

>  <subsites>  (57) 
1 - Z4590/B/203/1

>  <distance_score>  (57) 
0.667595

>  <HIPPO Compound ID>  (57) 
3520

>  <smiles>  (57) 
c1ccc(-c2cnc[nH]2)nc1

>  <energy_score>  (57) 
-7.244852

$$$$
P56091
     RDKit          3D

 15 17  0  0  0  0  0  0  0  0999 V2000
   -5.0795    5.2640  -15.5661 C   0  0  0  0  0  0  0  0  0  0  0  0
   -4.6556    5.4739  -16.8932 C   0  0  0  0  0  0  0  0  0  0  0  0
   -5.4808    5.2138  -18.0103 C   0  0  0  0  0  0  0  0  0  0  0  0
   -5.0170    5.5085  -19.4185 C   0  0  2  0  0  0  0  0  0  0  0  0
   -3.5232    5.1818  -19.6708 C   0  0  0  0  0  0  0  0  0  0  0  0
   -2.6980    6.4356  -19.9464 C   0  0  0  0  0  0  0  0  0  0  0  0
   -3.3135    7.2659  -21.0774 C   0  0  0  0  0  0  0  0  0  0  0  0
   -4.7732    7.4084  -21.0260 N   0  0  0  0  0  0  0  0  0  0  0  0
   -5.3187    6.9917  -19.7309 C   0  0  0  0  0  0  0  0  0  0  0  0
   -6.7419    4.7570  -17.5711 C   0  0  0  0  0  0  0  0  0  0  0  0
   -7.7826    4.4288  -18.4110 C   0  0  0  0  0  0  0  0  0  0  0  0
   -9.1923    3.9434  -17.5465 S   0  0  0  0  0  0  0  0  0  0  0  0
   -8.4137    4.1385  -16.0308 C   0  0  0  0  0  0  0  0  0  0  0  0
   -7.1250    4.5752  -16.1918 C   0  0  0  0  0  0  0  0  0  0  0  0
   -6.2964    4.8276  -15.1485 N   0  0  0  0  0  0  0  0  0  0  0  0
  1  2  1  0
  2  3  2  0
  4  3  1  1
  4  5  1  0
  5  6  1  0
  6  7  1  0
  7  8  1  0
  8  9  1  0
  3 10  1  0
 10 11  2  0
 11 12  1  0
 12 13  1  0
 13 14  2  0
 14 15  1  0
 15  1  2  0
  9  4  1  0
 14 10  1  0
M  END
>  <tags>  (58) 
openbind_xx01zvns2b_c1_knitwork_impure,BulkDock Fragalysis export,fragmenstein_placed,openbind_xx01zvns2b_c1_scaffolds

>  <placement_batch>  (58) 
openbind_xx01zvns2b_c1_knitwork_impure

>  <inspiration_score>  (58) 
None

>  <name>  (58) 
P56091

>  <HIPPO Pose ID>  (58) 
56091

>  <ref_pdb>  (58) 
Z1729a

>  <inchikey>  (58) 
YNCPXUWCVZKAIP-UHFFFAOYSA-N

>  <alias>  (58) 
None

>  <ref_mols>  (58) 
Z1729a,Z1716a,Z0773a

>  <subsites>  (58) 
1 - Z4590/B/203/1

>  <distance_score>  (58) 
0.998781

>  <HIPPO Compound ID>  (58) 
59461

>  <smiles>  (58) 
c1cc([C@@H]2CCCNC2)c2cscc2n1

>  <energy_score>  (58) 
-42.979277

$$$$
P56126
     RDKit          3D

 21 24  0  0  0  0  0  0  0  0999 V2000
   -4.5887    5.6476  -18.9952 C   0  0  0  0  0  0  0  0  0  0  0  0
   -4.0970    5.6893  -17.7074 C   0  0  0  0  0  0  0  0  0  0  0  0
   -4.8337    5.4146  -16.6094 N   0  0  0  0  0  0  0  0  0  0  0  0
   -6.1288    5.0552  -16.7703 C   0  0  0  0  0  0  0  0  0  0  0  0
   -6.9205    4.7090  -15.6658 C   0  0  0  0  0  0  0  0  0  0  0  0
   -6.2620    4.6432  -14.3024 C   0  0  0  0  0  0  0  0  0  0  0  0
   -7.0778    4.0266  -13.3026 O   0  0  0  0  0  0  0  0  0  0  0  0
   -7.6061    4.8248  -12.3209 C   0  0  0  0  0  0  0  0  0  0  0  0
   -7.9071    6.1370  -12.4391 C   0  0  0  0  0  0  0  0  0  0  0  0
   -8.3643    6.9218  -11.3060 C   0  0  0  0  0  0  0  0  0  0  0  0
   -8.5088    6.3187  -10.1156 C   0  0  0  0  0  0  0  0  0  0  0  0
   -8.2440    4.9560  -10.0045 N   0  0  0  0  0  0  0  0  0  0  0  0
   -8.3413    4.1425   -8.9053 C   0  0  0  0  0  0  0  0  0  0  0  0
   -7.9569    2.8961   -9.3397 C   0  0  0  0  0  0  0  0  0  0  0  0
   -7.5974    2.9318  -10.6627 N   0  0  0  0  0  0  0  0  0  0  0  0
   -7.8004    4.1697  -11.0615 C   0  0  0  0  0  0  0  0  0  0  0  0
   -8.2764    4.3721  -15.8370 C   0  0  0  0  0  0  0  0  0  0  0  0
   -8.8457    4.3430  -17.1038 C   0  0  0  0  0  0  0  0  0  0  0  0
   -8.0642    4.6440  -18.2119 C   0  0  0  0  0  0  0  0  0  0  0  0
   -6.7171    5.0027  -18.0544 C   0  0  0  0  0  0  0  0  0  0  0  0
   -5.9222    5.3057  -19.1666 C   0  0  0  0  0  0  0  0  0  0  0  0
  1  2  2  0
  2  3  1  0
  3  4  2  0
  4  5  1  0
  5  6  1  0
  6  7  1  0
  7  8  1  0
  8  9  2  0
  9 10  1  0
 10 11  2  0
 11 12  1  0
 12 13  1  0
 13 14  2  0
 14 15  1  0
 15 16  2  0
  5 17  2  0
 17 18  1  0
 18 19  2  0
 19 20  1  0
 20 21  2  0
 21  1  1  0
 20  4  1  0
 16  8  1  0
 16 12  1  0
M  END
>  <tags>  (59) 
openbind_xx01zvns2b_c1_knitwork_impure,fragmenstein_placed,openbind_xx01zvns2b_c1_scaffolds_chemok_bbok,BulkDock Fragalysis export,openbind_xx01zvns2b_c1_scaffolds

>  <placement_batch>  (59) 
openbind_xx01zvns2b_c1_knitwork_impure

>  <inspiration_score>  (59) 
None

>  <name>  (59) 
P56126

>  <HIPPO Pose ID>  (59) 
56126

>  <ref_pdb>  (59) 
Z1674a

>  <inchikey>  (59) 
MPTKIUWCFPLUKM-UHFFFAOYSA-N

>  <alias>  (59) 
None

>  <ref_mols>  (59) 
Z1674a,Z1495a

>  <subsites>  (59) 
1 - Z4590/B/203/1

>  <distance_score>  (59) 
0.778216

>  <HIPPO Compound ID>  (59) 
64582

>  <smiles>  (59) 
c1cnc2c(COc3cccn4ccnc34)cccc2c1

>  <energy_score>  (59) 
-14.154089

$$$$
P56197
     RDKit          3D

 16 18  0  0  0  0  0  0  0  0999 V2000
   -8.0556    4.1225  -18.8081 C   0  0  0  0  0  0  0  0  0  0  0  0
   -6.8085    4.6749  -19.0424 C   0  0  0  0  0  0  0  0  0  0  0  0
   -6.0054    5.1595  -17.9925 C   0  0  0  0  0  0  0  0  0  0  0  0
   -4.7820    5.7945  -18.2344 N   0  0  0  0  0  0  0  0  0  0  0  0
   -3.9805    5.4411  -19.4079 C   0  0  0  0  0  0  0  0  0  0  0  0
   -3.7434    6.6063  -20.3656 C   0  0  0  0  0  0  0  0  0  0  0  0
   -4.9878    7.4149  -20.7486 C   0  0  0  0  0  0  0  0  0  0  0  0
   -5.7974    7.9912  -19.6632 N   0  0  0  0  0  0  0  0  0  0  0  0
   -4.9898    8.3146  -18.4783 C   0  0  0  0  0  0  0  0  0  0  0  0
   -4.5115    7.1105  -17.6181 C   0  0  0  0  0  0  0  0  0  0  0  0
   -6.5684    4.9496  -16.7054 C   0  0  0  0  0  0  0  0  0  0  0  0
   -5.8864    5.2428  -15.1348 S   0  0  0  0  0  0  0  0  0  0  0  0
   -7.3018    4.7633  -14.3249 C   0  0  0  0  0  0  0  0  0  0  0  0
   -8.2677    4.3452  -15.2035 C   0  0  0  0  0  0  0  0  0  0  0  0
   -7.8436    4.3926  -16.5596 C   0  0  0  0  0  0  0  0  0  0  0  0
   -8.6073    3.9726  -17.5999 N   0  0  0  0  0  0  0  0  0  0  0  0
  1  2  2  0
  2  3  1  0
  3  4  1  0
  4  5  1  0
  5  6  1  0
  6  7  1  0
  7  8  1  0
  8  9  1  0
  9 10  1  0
  3 11  2  0
 11 12  1  0
 12 13  1  0
 13 14  2  0
 14 15  1  0
 15 16  2  0
 16  1  1  0
 10  4  1  0
 15 11  1  0
M  END
>  <tags>  (60) 
openbind_xx01zvns2b_c1_knitwork_impure,fragmenstein_placed,openbind_xx01zvns2b_c1_scaffolds_chemok_bbok,BulkDock Fragalysis export,openbind_xx01zvns2b_c1_scaffolds

>  <placement_batch>  (60) 
openbind_xx01zvns2b_c1_knitwork_impure

>  <inspiration_score>  (60) 
None

>  <name>  (60) 
P56197

>  <HIPPO Pose ID>  (60) 
56197

>  <ref_pdb>  (60) 
Z3515a

>  <inchikey>  (60) 
ZFCFMSIKJGEQIG-UHFFFAOYSA-N

>  <alias>  (60) 
None

>  <ref_mols>  (60) 
Z0917a,Z3515a

>  <subsites>  (60) 
1 - Z4590/B/203/1

>  <distance_score>  (60) 
0.959511

>  <HIPPO Compound ID>  (60) 
64652

>  <smiles>  (60) 
c1cc(N2CCCNCC2)c2sccc2n1

>  <energy_score>  (60) 
-39.123691

$$$$
P56198
     RDKit          3D

 13 15  0  0  0  0  0  0  0  0999 V2000
   -8.1622    3.9024  -19.0803 C   0  0  0  0  0  0  0  0  0  0  0  0
   -6.9428    4.4940  -19.3462 C   0  0  0  0  0  0  0  0  0  0  0  0
   -6.2136    5.1371  -18.3384 C   0  0  0  0  0  0  0  0  0  0  0  0
   -4.8737    5.9181  -18.5482 C   0  0  0  0  0  0  0  0  0  0  0  0
   -4.8142    6.9756  -19.6857 C   0  0  0  0  0  0  0  0  0  0  0  0
   -3.4042    6.5831  -19.9306 N   0  0  0  0  0  0  0  0  0  0  0  0
   -3.7120    5.2622  -19.3305 C   0  0  0  0  0  0  0  0  0  0  0  0
   -6.8091    5.0794  -17.0586 C   0  0  0  0  0  0  0  0  0  0  0  0
   -6.2456    5.7169  -15.5542 S   0  0  0  0  0  0  0  0  0  0  0  0
   -7.6148    5.1681  -14.7059 C   0  0  0  0  0  0  0  0  0  0  0  0
   -8.4883    4.5030  -15.5281 C   0  0  0  0  0  0  0  0  0  0  0  0
   -8.0394    4.4380  -16.8737 C   0  0  0  0  0  0  0  0  0  0  0  0
   -8.7340    3.8379  -17.8732 N   0  0  0  0  0  0  0  0  0  0  0  0
  1  2  2  0
  2  3  1  0
  3  4  1  0
  4  5  1  0
  5  6  1  0
  6  7  1  0
  3  8  2  0
  8  9  1  0
  9 10  1  0
 10 11  2  0
 11 12  1  0
 12 13  2  0
 13  1  1  0
  7  4  1  0
 12  8  1  0
M  END
>  <tags>  (61) 
openbind_xx01zvns2b_c1_knitwork_impure,fragmenstein_placed,openbind_xx01zvns2b_c1_scaffolds_chemok_bbok,BulkDock Fragalysis export,openbind_xx01zvns2b_c1_scaffolds

>  <placement_batch>  (61) 
openbind_xx01zvns2b_c1_knitwork_impure

>  <inspiration_score>  (61) 
None

>  <name>  (61) 
P56198

>  <HIPPO Pose ID>  (61) 
56198

>  <ref_pdb>  (61) 
Z3515a

>  <inchikey>  (61) 
DWYNAYVGMKFHNU-UHFFFAOYSA-N

>  <alias>  (61) 
None

>  <ref_mols>  (61) 
Z0917a,Z3515a

>  <subsites>  (61) 
1 - Z4590/B/203/1

>  <distance_score>  (61) 
0.586209

>  <HIPPO Compound ID>  (61) 
64659

>  <smiles>  (61) 
c1cc(C2CNC2)c2sccc2n1

>  <energy_score>  (61) 
-38.039753

$$$$
P56221
     RDKit          3D

 14 15  0  0  0  0  0  0  0  0999 V2000
   -4.6791    2.5131  -12.6594 C   0  0  0  0  0  0  0  0  0  0  0  0
   -6.0998    2.4975  -13.1781 C   0  0  0  0  0  0  0  0  0  0  0  0
   -6.7537    1.5332  -13.2237 O   0  0  0  0  0  0  0  0  0  0  0  0
   -6.4098    3.9426  -13.6387 N   0  0  0  0  0  0  0  0  0  0  0  0
   -7.6180    4.5153  -14.1610 C   0  0  0  0  0  0  0  0  0  0  0  0
   -7.5985    4.5580  -15.6471 C   0  0  0  0  0  0  0  0  0  0  0  0
   -8.7147    4.2970  -16.4827 C   0  0  0  0  0  0  0  0  0  0  0  0
   -8.4378    4.4167  -17.7796 N   0  0  0  0  0  0  0  0  0  0  0  0
   -7.1377    4.7441  -17.7906 N   0  0  0  0  0  0  0  0  0  0  0  0
   -6.5895    4.8858  -16.5419 C   0  0  0  0  0  0  0  0  0  0  0  0
   -5.1747    5.3218  -16.3739 C   0  0  0  0  0  0  0  0  0  0  0  0
   -4.3373    5.1151  -17.6380 C   0  0  0  0  0  0  0  0  0  0  0  0
   -5.0772    5.6004  -18.8758 C   0  0  0  0  0  0  0  0  0  0  0  0
   -6.4162    4.8886  -19.0364 C   0  0  0  0  0  0  0  0  0  0  0  0
  1  2  1  0
  2  3  2  0
  2  4  1  0
  4  5  1  0
  5  6  1  0
  6  7  1  0
  7  8  2  0
  8  9  1  0
  9 10  1  0
 10 11  1  0
 11 12  1  0
 12 13  1  0
 13 14  1  0
 10  6  2  0
 14  9  1  0
M  END
>  <tags>  (62) 
openbind_xx01zvns2b_c1_knitwork_impure,fragmenstein_placed,openbind_xx01zvns2b_c1_scaffolds_chemok_bbok,BulkDock Fragalysis export,openbind_xx01zvns2b_c1_scaffolds

>  <placement_batch>  (62) 
openbind_xx01zvns2b_c1_knitwork_impure

>  <inspiration_score>  (62) 
None

>  <name>  (62) 
P56221

>  <HIPPO Pose ID>  (62) 
56221

>  <ref_pdb>  (62) 
Z0719a

>  <inchikey>  (62) 
HSTWEZMPXQHJAH-UHFFFAOYSA-N

>  <alias>  (62) 
None

>  <ref_mols>  (62) 
Z0719a,Z1495a,Z0227a,Z0687a

>  <subsites>  (62) 
1 - Z4590/B/203/1

>  <distance_score>  (62) 
0.775288

>  <HIPPO Compound ID>  (62) 
63388

>  <smiles>  (62) 
CC(=O)NCc1cnn2c1CCCC2

>  <energy_score>  (62) 
-4.752736

$$$$
P56256
     RDKit          3D

 24 26  0  0  0  0  0  0  0  0999 V2000
   -4.0221    7.1770  -20.6749 C   0  0  0  0  0  0  0  0  0  0  0  0
   -4.1171    5.6421  -20.5752 C   0  0  2  0  0  0  0  0  0  0  0  0
   -2.7470    5.0651  -20.1259 C   0  0  0  0  0  0  0  0  0  0  0  0
   -2.3489    5.5366  -18.8387 O   0  0  0  0  0  0  0  0  0  0  0  0
   -4.5334    5.0172  -21.9401 C   0  0  0  0  0  0  0  0  0  0  0  0
   -3.8821    5.5665  -23.1849 C   0  0  0  0  0  0  0  0  0  0  0  0
   -2.6189    5.1155  -23.5916 C   0  0  0  0  0  0  0  0  0  0  0  0
   -2.0199    5.6299  -24.7432 C   0  0  0  0  0  0  0  0  0  0  0  0
   -2.6839    6.5934  -25.4985 C   0  0  0  0  0  0  0  0  0  0  0  0
   -1.9470    7.2192  -26.9213 Cl  0  0  0  0  0  0  0  0  0  0  0  0
   -3.9406    7.0505  -25.1101 C   0  0  0  0  0  0  0  0  0  0  0  0
   -4.5371    6.5406  -23.9552 C   0  0  0  0  0  0  0  0  0  0  0  0
   -5.1563    5.2839  -19.5912 N   0  0  0  0  0  0  0  0  0  0  0  0
   -5.6241    6.0147  -18.3192 C   0  0  0  0  0  0  0  0  0  0  0  0
   -5.3163    7.0546  -17.8874 O   0  0  0  0  0  0  0  0  0  0  0  0
   -6.6791    5.2581  -17.5829 C   0  0  0  0  0  0  0  0  0  0  0  0
   -7.7262    4.5694  -18.2152 C   0  0  0  0  0  0  0  0  0  0  0  0
   -8.7782    4.0296  -17.4767 C   0  0  0  0  0  0  0  0  0  0  0  0
   -8.8052    4.1539  -16.0847 C   0  0  0  0  0  0  0  0  0  0  0  0
   -7.7720    4.8370  -15.4216 C   0  0  0  0  0  0  0  0  0  0  0  0
   -7.5191    5.1784  -14.0641 C   0  0  0  0  0  0  0  0  0  0  0  0
   -6.3556    5.9140  -14.0266 C   0  0  0  0  0  0  0  0  0  0  0  0
   -5.8794    6.0068  -15.3082 N   0  0  0  0  0  0  0  0  0  0  0  0
   -6.7324    5.3651  -16.1817 C   0  0  0  0  0  0  0  0  0  0  0  0
  2  1  1  6
  2  3  1  0
  3  4  1  0
  2  5  1  0
  5  6  1  0
  6  7  2  0
  7  8  1  0
  8  9  2  0
  9 10  1  0
  9 11  1  0
 11 12  2  0
  2 13  1  0
 13 14  1  0
 14 15  2  0
 14 16  1  0
 16 17  2  0
 17 18  1  0
 18 19  2  0
 19 20  1  0
 20 21  1  0
 21 22  2  0
 22 23  1  0
 23 24  1  0
 12  6  1  0
 24 16  1  0
 24 20  2  0
M  END
>  <tags>  (63) 
openbind_xx01zvns2b_c1_knitwork_impure,BulkDock Fragalysis export,fragmenstein_placed,openbind_xx01zvns2b_c1_scaffolds

>  <placement_batch>  (63) 
openbind_xx01zvns2b_c1_knitwork_impure

>  <inspiration_score>  (63) 
None

>  <name>  (63) 
P56256

>  <HIPPO Pose ID>  (63) 
56256

>  <ref_pdb>  (63) 
Z0101a

>  <inchikey>  (63) 
KJHBNMPPZGCARH-UHFFFAOYSA-N

>  <alias>  (63) 
None

>  <ref_mols>  (63) 
Z0101a,Z0827a

>  <subsites>  (63) 
1 - Z4590/B/203/1

>  <distance_score>  (63) 
0.701996

>  <HIPPO Compound ID>  (63) 
64790

>  <smiles>  (63) 
C[C@](CO)(Cc1ccc(Cl)cc1)NC(=O)c1cccc2cc[nH]c12

>  <energy_score>  (63) 
-16.791798

$$$$
P56257
     RDKit          3D

 25 27  0  0  0  0  0  0  0  0999 V2000
   -6.0774   12.3085  -23.3634 C   0  0  0  0  0  0  0  0  0  0  0  0
   -6.1021   11.8470  -22.0173 O   0  0  0  0  0  0  0  0  0  0  0  0
   -5.5148   10.6348  -21.7771 C   0  0  0  0  0  0  0  0  0  0  0  0
   -5.3422   10.3247  -20.4269 C   0  0  0  0  0  0  0  0  0  0  0  0
   -4.7261    9.1307  -20.0458 C   0  0  0  0  0  0  0  0  0  0  0  0
   -4.2648    8.2281  -21.0132 C   0  0  0  0  0  0  0  0  0  0  0  0
   -3.3798    7.0757  -20.6051 C   0  0  0  0  0  0  0  0  0  0  0  0
   -3.8699    5.6002  -20.5620 C   0  0  2  0  0  0  0  0  0  0  0  0
   -2.6851    4.8027  -19.9715 C   0  0  0  0  0  0  0  0  0  0  0  0
   -4.1722    5.0205  -21.9665 C   0  0  0  0  0  0  0  0  0  0  0  0
   -5.3231    5.5819  -22.5832 O   0  0  0  0  0  0  0  0  0  0  0  0
   -5.0092    5.3891  -19.6669 N   0  0  0  0  0  0  0  0  0  0  0  0
   -5.2710    5.9087  -18.2404 C   0  0  0  0  0  0  0  0  0  0  0  0
   -4.6566    6.6503  -17.5807 O   0  0  0  0  0  0  0  0  0  0  0  0
   -6.4788    5.2694  -17.5963 C   0  0  0  0  0  0  0  0  0  0  0  0
   -7.5269    4.6291  -18.2781 C   0  0  0  0  0  0  0  0  0  0  0  0
   -8.6270    4.0987  -17.6011 C   0  0  0  0  0  0  0  0  0  0  0  0
   -8.7191    4.1841  -16.2113 C   0  0  0  0  0  0  0  0  0  0  0  0
   -7.7031    4.8325  -15.4925 C   0  0  0  0  0  0  0  0  0  0  0  0
   -7.5120    5.1408  -14.1165 C   0  0  0  0  0  0  0  0  0  0  0  0
   -6.3335    5.8423  -14.0042 C   0  0  0  0  0  0  0  0  0  0  0  0
   -5.7884    5.9376  -15.2561 N   0  0  0  0  0  0  0  0  0  0  0  0
   -6.6143    5.3485  -16.1927 C   0  0  0  0  0  0  0  0  0  0  0  0
   -4.4822    8.5258  -22.3636 C   0  0  0  0  0  0  0  0  0  0  0  0
   -5.1099    9.7170  -22.7445 C   0  0  0  0  0  0  0  0  0  0  0  0
  1  2  1  0
  2  3  1  0
  3  4  2  0
  4  5  1  0
  5  6  2  0
  6  7  1  0
  7  8  1  0
  8  9  1  1
  8 10  1  0
 10 11  1  0
  8 12  1  0
 12 13  1  0
 13 14  2  0
 13 15  1  0
 15 16  2  0
 16 17  1  0
 17 18  2  0
 18 19  1  0
 19 20  1  0
 20 21  2  0
 21 22  1  0
 22 23  1  0
  6 24  1  0
 24 25  2  0
 25  3  1  0
 23 15  1  0
 23 19  2  0
M  END
>  <tags>  (64) 
openbind_xx01zvns2b_c1_knitwork_impure,fragmenstein_placed,openbind_xx01zvns2b_c1_scaffolds_chemok_bbok,BulkDock Fragalysis export,openbind_xx01zvns2b_c1_scaffolds

>  <placement_batch>  (64) 
openbind_xx01zvns2b_c1_knitwork_impure

>  <inspiration_score>  (64) 
None

>  <name>  (64) 
P56257

>  <HIPPO Pose ID>  (64) 
56257

>  <ref_pdb>  (64) 
Z0101a

>  <inchikey>  (64) 
MFZOQTVMCFTJFC-UHFFFAOYSA-N

>  <alias>  (64) 
None

>  <ref_mols>  (64) 
Z0101a,Z0827a

>  <subsites>  (64) 
1 - Z4590/B/203/1

>  <distance_score>  (64) 
0.632093

>  <HIPPO Compound ID>  (64) 
64791

>  <smiles>  (64) 
COc1ccc(C[C@](C)(CO)NC(=O)c2cccc3cc[nH]c23)cc1

>  <energy_score>  (64) 
-16.140747

$$$$
P56258
     RDKit          3D

 24 26  0  0  0  0  0  0  0  0999 V2000
   -4.0727    7.2146  -20.7235 C   0  0  0  0  0  0  0  0  0  0  0  0
   -4.1301    5.6784  -20.6128 C   0  0  2  0  0  0  0  0  0  0  0  0
   -2.7672    5.1420  -20.0975 C   0  0  0  0  0  0  0  0  0  0  0  0
   -1.6840    5.5686  -20.9130 O   0  0  0  0  0  0  0  0  0  0  0  0
   -4.5029    5.0117  -21.9736 C   0  0  0  0  0  0  0  0  0  0  0  0
   -4.0761    5.6937  -23.2509 C   0  0  0  0  0  0  0  0  0  0  0  0
   -2.8176    5.4379  -23.8126 C   0  0  0  0  0  0  0  0  0  0  0  0
   -2.4309    6.0579  -25.0025 C   0  0  0  0  0  0  0  0  0  0  0  0
   -3.3040    6.9356  -25.6399 C   0  0  0  0  0  0  0  0  0  0  0  0
   -2.7841    7.7676  -27.2554 Br  0  0  0  0  0  0  0  0  0  0  0  0
   -4.5572    7.2044  -25.0957 C   0  0  0  0  0  0  0  0  0  0  0  0
   -4.9391    6.5882  -23.9026 C   0  0  0  0  0  0  0  0  0  0  0  0
   -5.1798    5.3398  -19.6335 N   0  0  0  0  0  0  0  0  0  0  0  0
   -5.4108    5.8481  -18.1996 C   0  0  0  0  0  0  0  0  0  0  0  0
   -4.8536    6.6726  -17.5905 O   0  0  0  0  0  0  0  0  0  0  0  0
   -6.5919    5.1938  -17.5310 C   0  0  0  0  0  0  0  0  0  0  0  0
   -7.6563    4.5629  -18.2004 C   0  0  0  0  0  0  0  0  0  0  0  0
   -8.7587    4.0605  -17.5070 C   0  0  0  0  0  0  0  0  0  0  0  0
   -8.8362    4.1757  -16.1183 C   0  0  0  0  0  0  0  0  0  0  0  0
   -7.8108    4.8276  -15.4158 C   0  0  0  0  0  0  0  0  0  0  0  0
   -7.6065    5.1605  -14.0477 C   0  0  0  0  0  0  0  0  0  0  0  0
   -6.4201    5.8523  -13.9576 C   0  0  0  0  0  0  0  0  0  0  0  0
   -5.8828    5.9185  -15.2150 N   0  0  0  0  0  0  0  0  0  0  0  0
   -6.7184    5.3112  -16.1311 C   0  0  0  0  0  0  0  0  0  0  0  0
  2  1  1  6
  2  3  1  0
  3  4  1  0
  2  5  1  0
  5  6  1  0
  6  7  2  0
  7  8  1  0
  8  9  2  0
  9 10  1  0
  9 11  1  0
 11 12  2  0
  2 13  1  0
 13 14  1  0
 14 15  2  0
 14 16  1  0
 16 17  2  0
 17 18  1  0
 18 19  2  0
 19 20  1  0
 20 21  1  0
 21 22  2  0
 22 23  1  0
 23 24  1  0
 12  6  1  0
 24 16  1  0
 24 20  2  0
M  END
>  <tags>  (65) 
openbind_xx01zvns2b_c1_knitwork_impure,fragmenstein_placed,openbind_xx01zvns2b_c1_scaffolds_chemok_bbok,BulkDock Fragalysis export,openbind_xx01zvns2b_c1_scaffolds

>  <placement_batch>  (65) 
openbind_xx01zvns2b_c1_knitwork_impure

>  <inspiration_score>  (65) 
None

>  <name>  (65) 
P56258

>  <HIPPO Pose ID>  (65) 
56258

>  <ref_pdb>  (65) 
Z0101a

>  <inchikey>  (65) 
UEXYVTUMZOFUGJ-UHFFFAOYSA-N

>  <alias>  (65) 
None

>  <ref_mols>  (65) 
Z0101a,Z0827a

>  <subsites>  (65) 
1 - Z4590/B/203/1

>  <distance_score>  (65) 
0.640433

>  <HIPPO Compound ID>  (65) 
64792

>  <smiles>  (65) 
C[C@](CO)(Cc1ccc(Br)cc1)NC(=O)c1cccc2cc[nH]c12

>  <energy_score>  (65) 
-8.583082

$$$$
P56260
     RDKit          3D

 24 26  0  0  0  0  0  0  0  0999 V2000
   -3.5311    7.2574  -20.4773 C   0  0  0  0  0  0  0  0  0  0  0  0
   -4.0541    5.8522  -20.8139 C   0  0  0  0  0  0  0  0  0  0  0  0
   -2.8946    4.8594  -20.6644 C   0  0  0  0  0  0  0  0  0  0  0  0
   -4.5674    5.7946  -22.2772 C   0  0  0  0  0  0  0  0  0  0  0  0
   -5.4048    6.9326  -22.5051 O   0  0  0  0  0  0  0  0  0  0  0  0
   -5.4508    7.3360  -23.8157 C   0  0  0  0  0  0  0  0  0  0  0  0
   -5.5793    6.3744  -24.7521 N   0  0  0  0  0  0  0  0  0  0  0  0
   -5.7743    6.7846  -26.0266 C   0  0  0  0  0  0  0  0  0  0  0  0
   -5.8244    8.1134  -26.4123 C   0  0  0  0  0  0  0  0  0  0  0  0
   -5.6715    9.0879  -25.4322 C   0  0  0  0  0  0  0  0  0  0  0  0
   -5.4912    8.6974  -24.1070 C   0  0  0  0  0  0  0  0  0  0  0  0
   -5.2810   10.0333  -22.7847 Br  0  0  0  0  0  0  0  0  0  0  0  0
   -5.1205    5.5369  -19.8624 N   0  0  0  0  0  0  0  0  0  0  0  0
   -5.0679    5.3100  -18.3355 C   0  0  0  0  0  0  0  0  0  0  0  0
   -4.1790    5.4146  -17.5849 O   0  0  0  0  0  0  0  0  0  0  0  0
   -6.4018    4.9526  -17.7373 C   0  0  0  0  0  0  0  0  0  0  0  0
   -7.4691    4.3725  -18.4382 C   0  0  0  0  0  0  0  0  0  0  0  0
   -8.6645    4.0370  -17.7986 C   0  0  0  0  0  0  0  0  0  0  0  0
   -8.8225    4.2400  -16.4254 C   0  0  0  0  0  0  0  0  0  0  0  0
   -7.7834    4.8343  -15.6907 C   0  0  0  0  0  0  0  0  0  0  0  0
   -7.6275    5.2164  -14.3280 C   0  0  0  0  0  0  0  0  0  0  0  0
   -6.3765    5.7736  -14.1895 C   0  0  0  0  0  0  0  0  0  0  0  0
   -5.7565    5.7049  -15.4089 N   0  0  0  0  0  0  0  0  0  0  0  0
   -6.6058    5.1691  -16.3563 C   0  0  0  0  0  0  0  0  0  0  0  0
  1  2  1  0
  2  3  1  0
  2  4  1  0
  4  5  1  0
  5  6  1  0
  6  7  2  0
  7  8  1  0
  8  9  2  0
  9 10  1  0
 10 11  2  0
 11 12  1  0
  2 13  1  0
 13 14  1  0
 14 15  2  0
 14 16  1  0
 16 17  2  0
 17 18  1  0
 18 19  2  0
 19 20  1  0
 20 21  1  0
 21 22  2  0
 22 23  1  0
 23 24  1  0
 11  6  1  0
 24 16  1  0
 24 20  2  0
M  END
>  <tags>  (66) 
openbind_xx01zvns2b_c1_knitwork_impure,fragmenstein_placed,openbind_xx01zvns2b_c1_scaffolds_chemok_bbok,BulkDock Fragalysis export,openbind_xx01zvns2b_c1_scaffolds

>  <placement_batch>  (66) 
openbind_xx01zvns2b_c1_knitwork_impure

>  <inspiration_score>  (66) 
None

>  <name>  (66) 
P56260

>  <HIPPO Pose ID>  (66) 
56260

>  <ref_pdb>  (66) 
Z0101a

>  <inchikey>  (66) 
HRWSJQVXILNYEC-UHFFFAOYSA-N

>  <alias>  (66) 
None

>  <ref_mols>  (66) 
Z0101a,Z0827a

>  <subsites>  (66) 
1 - Z4590/B/203/1

>  <distance_score>  (66) 
0.714708

>  <HIPPO Compound ID>  (66) 
64794

>  <smiles>  (66) 
CC(C)(COc1ncccc1Br)NC(=O)c1cccc2cc[nH]c12

>  <energy_score>  (66) 
-8.424753

$$$$
P56261
     RDKit          3D

 26 29  0  0  0  0  0  0  0  0999 V2000
   -4.0360    7.2580  -20.6681 C   0  0  0  0  0  0  0  0  0  0  0  0
   -4.1395    5.7199  -20.6273 C   0  0  2  0  0  0  0  0  0  0  0  0
   -2.7899    5.1371  -20.1322 C   0  0  0  0  0  0  0  0  0  0  0  0
   -1.7223    5.5533  -20.9678 O   0  0  0  0  0  0  0  0  0  0  0  0
   -4.4989    5.1086  -22.0172 C   0  0  0  0  0  0  0  0  0  0  0  0
   -4.2481    5.9122  -23.1958 N   0  0  0  0  0  0  0  0  0  0  0  0
   -5.1185    6.8388  -23.7061 C   0  0  0  0  0  0  0  0  0  0  0  0
   -4.6767    7.3707  -24.8205 N   0  0  0  0  0  0  0  0  0  0  0  0
   -3.4735    6.7549  -25.0557 C   0  0  0  0  0  0  0  0  0  0  0  0
   -2.5758    6.9352  -26.1186 C   0  0  0  0  0  0  0  0  0  0  0  0
   -1.3989    6.1780  -26.1460 C   0  0  0  0  0  0  0  0  0  0  0  0
   -1.1236    5.2548  -25.1374 C   0  0  0  0  0  0  0  0  0  0  0  0
   -2.0136    5.0534  -24.0765 C   0  0  0  0  0  0  0  0  0  0  0  0
   -3.1802    5.8262  -24.0575 C   0  0  0  0  0  0  0  0  0  0  0  0
   -5.1954    5.3757  -19.6544 N   0  0  0  0  0  0  0  0  0  0  0  0
   -5.3888    5.8140  -18.1916 C   0  0  0  0  0  0  0  0  0  0  0  0
   -4.7879    6.5770  -17.5452 O   0  0  0  0  0  0  0  0  0  0  0  0
   -6.5905    5.1771  -17.5365 C   0  0  0  0  0  0  0  0  0  0  0  0
   -7.6578    4.5541  -18.2095 C   0  0  0  0  0  0  0  0  0  0  0  0
   -8.7676    4.0593  -17.5214 C   0  0  0  0  0  0  0  0  0  0  0  0
   -8.8515    4.1739  -16.1336 C   0  0  0  0  0  0  0  0  0  0  0  0
   -7.8261    4.8194  -15.4263 C   0  0  0  0  0  0  0  0  0  0  0  0
   -7.6276    5.1504  -14.0569 C   0  0  0  0  0  0  0  0  0  0  0  0
   -6.4369    5.8332  -13.9594 C   0  0  0  0  0  0  0  0  0  0  0  0
   -5.8918    5.8946  -15.2132 N   0  0  0  0  0  0  0  0  0  0  0  0
   -6.7265    5.2950  -16.1361 C   0  0  0  0  0  0  0  0  0  0  0  0
  2  1  1  6
  2  3  1  0
  3  4  1  0
  2  5  1  0
  5  6  1  0
  6  7  1  0
  7  8  2  0
  8  9  1  0
  9 10  2  0
 10 11  1  0
 11 12  2  0
 12 13  1  0
 13 14  2  0
  2 15  1  0
 15 16  1  0
 16 17  2  0
 16 18  1  0
 18 19  2  0
 19 20  1  0
 20 21  2  0
 21 22  1  0
 22 23  1  0
 23 24  2  0
 24 25  1  0
 25 26  1  0
 14  6  1  0
 26 18  1  0
 14  9  1  0
 26 22  2  0
M  END
>  <tags>  (67) 
openbind_xx01zvns2b_c1_knitwork_impure,fragmenstein_placed,openbind_xx01zvns2b_c1_scaffolds_chemok_bbok,BulkDock Fragalysis export,openbind_xx01zvns2b_c1_scaffolds

>  <placement_batch>  (67) 
openbind_xx01zvns2b_c1_knitwork_impure

>  <inspiration_score>  (67) 
None

>  <name>  (67) 
P56261

>  <HIPPO Pose ID>  (67) 
56261

>  <ref_pdb>  (67) 
Z0101a

>  <inchikey>  (67) 
OCHZYTSIAFEGRH-UHFFFAOYSA-N

>  <alias>  (67) 
None

>  <ref_mols>  (67) 
Z0101a,Z0827a

>  <subsites>  (67) 
1 - Z4590/B/203/1

>  <distance_score>  (67) 
0.619037

>  <HIPPO Compound ID>  (67) 
64795

>  <smiles>  (67) 
C[C@](CO)(Cn1cnc2ccccc21)NC(=O)c1cccc2cc[nH]c12

>  <energy_score>  (67) 
-9.908005

$$$$
P56263
     RDKit          3D

 27 29  0  0  0  0  0  0  0  0999 V2000
   -3.8927    7.2004  -20.8617 C   0  0  0  0  0  0  0  0  0  0  0  0
   -4.1288    5.6881  -20.7650 C   0  0  0  0  0  0  0  0  0  0  0  0
   -2.8329    5.0312  -20.2550 C   0  0  0  0  0  0  0  0  0  0  0  0
   -4.5102    5.0207  -22.1208 C   0  0  0  0  0  0  0  0  0  0  0  0
   -5.0698    5.9392  -23.0710 O   0  0  0  0  0  0  0  0  0  0  0  0
   -4.1739    6.4287  -24.0012 C   0  0  0  0  0  0  0  0  0  0  0  0
   -2.9933    5.7903  -24.1624 N   0  0  0  0  0  0  0  0  0  0  0  0
   -2.1356    6.2750  -25.0839 C   0  0  0  0  0  0  0  0  0  0  0  0
   -2.4091    7.3726  -25.8757 C   0  0  0  0  0  0  0  0  0  0  0  0
   -3.6334    8.0087  -25.7054 C   0  0  0  0  0  0  0  0  0  0  0  0
   -4.5439    7.5350  -24.7489 C   0  0  0  0  0  0  0  0  0  0  0  0
   -5.8638    8.1938  -24.5320 C   0  0  0  0  0  0  0  0  0  0  0  0
   -6.9199    7.3843  -24.8049 F   0  0  0  0  0  0  0  0  0  0  0  0
   -6.0461    9.2944  -25.3227 F   0  0  0  0  0  0  0  0  0  0  0  0
   -6.0436    8.6488  -23.2594 F   0  0  0  0  0  0  0  0  0  0  0  0
   -5.2044    5.4704  -19.7930 N   0  0  0  0  0  0  0  0  0  0  0  0
   -5.1727    5.4510  -18.2509 C   0  0  0  0  0  0  0  0  0  0  0  0
   -4.3009    5.6815  -17.5090 O   0  0  0  0  0  0  0  0  0  0  0  0
   -6.4840    5.0369  -17.6328 C   0  0  0  0  0  0  0  0  0  0  0  0
   -7.5450    4.4137  -18.3110 C   0  0  0  0  0  0  0  0  0  0  0  0
   -8.7112    4.0300  -17.6470 C   0  0  0  0  0  0  0  0  0  0  0  0
   -8.8456    4.2252  -16.2717 C   0  0  0  0  0  0  0  0  0  0  0  0
   -7.8143    4.8539  -15.5570 C   0  0  0  0  0  0  0  0  0  0  0  0
   -7.6427    5.2334  -14.1958 C   0  0  0  0  0  0  0  0  0  0  0  0
   -6.4094    5.8332  -14.0804 C   0  0  0  0  0  0  0  0  0  0  0  0
   -5.8148    5.7941  -15.3130 N   0  0  0  0  0  0  0  0  0  0  0  0
   -6.6655    5.2352  -16.2460 C   0  0  0  0  0  0  0  0  0  0  0  0
  1  2  1  0
  2  3  1  0
  2  4  1  0
  4  5  1  0
  5  6  1  0
  6  7  2  0
  7  8  1  0
  8  9  2  0
  9 10  1  0
 10 11  2  0
 11 12  1  0
 12 13  1  0
 12 14  1  0
 12 15  1  0
  2 16  1  0
 16 17  1  0
 17 18  2  0
 17 19  1  0
 19 20  2  0
 20 21  1  0
 21 22  2  0
 22 23  1  0
 23 24  1  0
 24 25  2  0
 25 26  1  0
 26 27  1  0
 11  6  1  0
 27 19  1  0
 27 23  2  0
M  END
>  <tags>  (68) 
openbind_xx01zvns2b_c1_knitwork_impure,fragmenstein_placed,openbind_xx01zvns2b_c1_scaffolds_chemok_bbok,BulkDock Fragalysis export,openbind_xx01zvns2b_c1_scaffolds

>  <placement_batch>  (68) 
openbind_xx01zvns2b_c1_knitwork_impure

>  <inspiration_score>  (68) 
None

>  <name>  (68) 
P56263

>  <HIPPO Pose ID>  (68) 
56263

>  <ref_pdb>  (68) 
Z0101a

>  <inchikey>  (68) 
BSWBHJYSKIPNIH-UHFFFAOYSA-N

>  <alias>  (68) 
None

>  <ref_mols>  (68) 
Z0101a,Z0827a

>  <subsites>  (68) 
1 - Z4590/B/203/1

>  <distance_score>  (68) 
0.544937

>  <HIPPO Compound ID>  (68) 
64797

>  <smiles>  (68) 
CC(C)(COc1ncccc1C(F)(F)F)NC(=O)c1cccc2cc[nH]c12

>  <energy_score>  (68) 
-47.159361

$$$$
P56264
     RDKit          3D

 24 26  0  0  0  0  0  0  0  0999 V2000
   -4.1592    7.2866  -20.7588 C   0  0  0  0  0  0  0  0  0  0  0  0
   -4.1481    5.7520  -20.6852 C   0  0  2  0  0  0  0  0  0  0  0  0
   -2.7437    5.2571  -20.2239 C   0  0  0  0  0  0  0  0  0  0  0  0
   -2.2623    5.9500  -19.0701 O   0  0  0  0  0  0  0  0  0  0  0  0
   -4.5085    5.0873  -22.0460 C   0  0  0  0  0  0  0  0  0  0  0  0
   -3.8929    5.6798  -23.2891 C   0  0  0  0  0  0  0  0  0  0  0  0
   -2.6165    5.2817  -23.7160 C   0  0  0  0  0  0  0  0  0  0  0  0
   -2.0545    5.8299  -24.8695 C   0  0  0  0  0  0  0  0  0  0  0  0
   -2.7689    6.7700  -25.6009 C   0  0  0  0  0  0  0  0  0  0  0  0
   -2.2296    7.2919  -26.7103 F   0  0  0  0  0  0  0  0  0  0  0  0
   -4.0357    7.1749  -25.2000 C   0  0  0  0  0  0  0  0  0  0  0  0
   -4.5978    6.6326  -24.0440 C   0  0  0  0  0  0  0  0  0  0  0  0
   -5.2009    5.3719  -19.7244 N   0  0  0  0  0  0  0  0  0  0  0  0
   -5.1199    5.0812  -18.2149 C   0  0  0  0  0  0  0  0  0  0  0  0
   -4.1956    5.0205  -17.5047 O   0  0  0  0  0  0  0  0  0  0  0  0
   -6.4633    4.8388  -17.6008 C   0  0  0  0  0  0  0  0  0  0  0  0
   -7.5628    4.2988  -18.2861 C   0  0  0  0  0  0  0  0  0  0  0  0
   -8.7558    4.0151  -17.6246 C   0  0  0  0  0  0  0  0  0  0  0  0
   -8.8784    4.2472  -16.2534 C   0  0  0  0  0  0  0  0  0  0  0  0
   -7.8184    4.8362  -15.5451 C   0  0  0  0  0  0  0  0  0  0  0  0
   -7.6366    5.2506  -14.1963 C   0  0  0  0  0  0  0  0  0  0  0  0
   -6.3684    5.7745  -14.0869 C   0  0  0  0  0  0  0  0  0  0  0  0
   -5.7618    5.6503  -15.3090 N   0  0  0  0  0  0  0  0  0  0  0  0
   -6.6378    5.1129  -16.2295 C   0  0  0  0  0  0  0  0  0  0  0  0
  2  1  1  6
  2  3  1  0
  3  4  1  0
  2  5  1  0
  5  6  1  0
  6  7  2  0
  7  8  1  0
  8  9  2  0
  9 10  1  0
  9 11  1  0
 11 12  2  0
  2 13  1  0
 13 14  1  0
 14 15  2  0
 14 16  1  0
 16 17  2  0
 17 18  1  0
 18 19  2  0
 19 20  1  0
 20 21  1  0
 21 22  2  0
 22 23  1  0
 23 24  1  0
 12  6  1  0
 24 16  1  0
 24 20  2  0
M  END
>  <tags>  (69) 
openbind_xx01zvns2b_c1_knitwork_impure,fragmenstein_placed,openbind_xx01zvns2b_c1_scaffolds_chemok_bbok,BulkDock Fragalysis export,openbind_xx01zvns2b_c1_scaffolds

>  <placement_batch>  (69) 
openbind_xx01zvns2b_c1_knitwork_impure

>  <inspiration_score>  (69) 
None

>  <name>  (69) 
P56264

>  <HIPPO Pose ID>  (69) 
56264

>  <ref_pdb>  (69) 
Z0101a

>  <inchikey>  (69) 
PVWNPFUPWZVGMP-UHFFFAOYSA-N

>  <alias>  (69) 
None

>  <ref_mols>  (69) 
Z0101a,Z0827a

>  <subsites>  (69) 
1 - Z4590/B/203/1

>  <distance_score>  (69) 
0.672309

>  <HIPPO Compound ID>  (69) 
64798

>  <smiles>  (69) 
C[C@](CO)(Cc1ccc(F)cc1)NC(=O)c1cccc2cc[nH]c12

>  <energy_score>  (69) 
-18.137789

$$$$
P56265
     RDKit          3D

 24 26  0  0  0  0  0  0  0  0999 V2000
   -4.1947    7.2578  -20.7315 C   0  0  0  0  0  0  0  0  0  0  0  0
   -4.2033    5.7199  -20.7143 C   0  0  2  0  0  0  0  0  0  0  0  0
   -2.7966    5.1970  -20.2873 C   0  0  0  0  0  0  0  0  0  0  0  0
   -2.2722    5.8845  -19.1480 O   0  0  0  0  0  0  0  0  0  0  0  0
   -4.5838    5.0956  -22.0896 C   0  0  0  0  0  0  0  0  0  0  0  0
   -4.0803    5.7923  -23.3269 C   0  0  0  0  0  0  0  0  0  0  0  0
   -4.8287    6.8132  -23.9326 C   0  0  0  0  0  0  0  0  0  0  0  0
   -4.3573    7.4535  -25.0813 C   0  0  0  0  0  0  0  0  0  0  0  0
   -3.1349    7.0817  -25.6399 C   0  0  0  0  0  0  0  0  0  0  0  0
   -2.3881    6.0620  -25.0548 C   0  0  0  0  0  0  0  0  0  0  0  0
   -2.8658    5.4261  -23.9129 C   0  0  0  0  0  0  0  0  0  0  0  0
   -2.1626    4.4059  -23.4056 F   0  0  0  0  0  0  0  0  0  0  0  0
   -5.2429    5.3217  -19.7433 N   0  0  0  0  0  0  0  0  0  0  0  0
   -5.1840    5.1949  -18.2105 C   0  0  0  0  0  0  0  0  0  0  0  0
   -4.2841    5.3099  -17.4760 O   0  0  0  0  0  0  0  0  0  0  0  0
   -6.5237    4.8989  -17.5929 C   0  0  0  0  0  0  0  0  0  0  0  0
   -7.6160    4.3223  -18.2634 C   0  0  0  0  0  0  0  0  0  0  0  0
   -8.7992    4.0132  -17.5919 C   0  0  0  0  0  0  0  0  0  0  0  0
   -8.9209    4.2537  -16.2225 C   0  0  0  0  0  0  0  0  0  0  0  0
   -7.8729    4.8748  -15.5257 C   0  0  0  0  0  0  0  0  0  0  0  0
   -7.6904    5.2953  -14.1785 C   0  0  0  0  0  0  0  0  0  0  0  0
   -6.4331    5.8462  -14.0786 C   0  0  0  0  0  0  0  0  0  0  0  0
   -5.8347    5.7350  -15.3054 N   0  0  0  0  0  0  0  0  0  0  0  0
   -6.7044    5.1759  -16.2204 C   0  0  0  0  0  0  0  0  0  0  0  0
  2  1  1  6
  2  3  1  0
  3  4  1  0
  2  5  1  0
  5  6  1  0
  6  7  2  0
  7  8  1  0
  8  9  2  0
  9 10  1  0
 10 11  2  0
 11 12  1  0
  2 13  1  0
 13 14  1  0
 14 15  2  0
 14 16  1  0
 16 17  2  0
 17 18  1  0
 18 19  2  0
 19 20  1  0
 20 21  1  0
 21 22  2  0
 22 23  1  0
 23 24  1  0
 11  6  1  0
 24 16  1  0
 24 20  2  0
M  END
>  <tags>  (70) 
openbind_xx01zvns2b_c1_knitwork_impure,fragmenstein_placed,openbind_xx01zvns2b_c1_scaffolds_chemok_bbok,BulkDock Fragalysis export,openbind_xx01zvns2b_c1_scaffolds

>  <placement_batch>  (70) 
openbind_xx01zvns2b_c1_knitwork_impure

>  <inspiration_score>  (70) 
None

>  <name>  (70) 
P56265

>  <HIPPO Pose ID>  (70) 
56265

>  <ref_pdb>  (70) 
Z0101a

>  <inchikey>  (70) 
MSOXWHJHAGZIKH-UHFFFAOYSA-N

>  <alias>  (70) 
None

>  <ref_mols>  (70) 
Z0101a,Z0827a

>  <subsites>  (70) 
1 - Z4590/B/203/1

>  <distance_score>  (70) 
0.615805

>  <HIPPO Compound ID>  (70) 
64799

>  <smiles>  (70) 
C[C@](CO)(Cc1ccccc1F)NC(=O)c1cccc2cc[nH]c12

>  <energy_score>  (70) 
-41.252659

$$$$
P56340
     RDKit          3D

 11 12  0  0  0  0  0  0  0  0999 V2000
   -8.3572    4.4011  -17.0615 C   0  0  0  0  0  0  0  0  0  0  0  0
   -8.3917    4.5622  -15.6954 C   0  0  0  0  0  0  0  0  0  0  0  0
   -7.3503    5.2764  -15.1249 C   0  0  0  0  0  0  0  0  0  0  0  0
   -7.3320    5.5988  -13.6430 C   0  0  1  0  0  0  0  0  0  0  0  0
   -8.0537    4.6123  -12.7308 C   0  0  0  0  0  0  0  0  0  0  0  0
   -7.5045    4.9250  -11.3464 C   0  0  0  0  0  0  0  0  0  0  0  0
   -6.2047    5.6788  -11.5987 C   0  0  0  0  0  0  0  0  0  0  0  0
   -5.9893    5.5918  -13.0379 N   0  0  0  0  0  0  0  0  0  0  0  0
   -6.3583    5.8086  -15.8830 N   0  0  0  0  0  0  0  0  0  0  0  0
   -6.4086    5.5496  -17.1986 C   0  0  0  0  0  0  0  0  0  0  0  0
   -7.3744    4.8828  -17.8375 N   0  0  0  0  0  0  0  0  0  0  0  0
  1  2  2  0
  2  3  1  0
  4  3  1  6
  4  5  1  0
  5  6  1  0
  6  7  1  0
  7  8  1  0
  3  9  2  0
  9 10  1  0
 10 11  2  0
 11  1  1  0
  8  4  1  0
M  END
>  <tags>  (71) 
openbind_xx01zvns2b_c1_knitwork_impure,fragmenstein_placed,openbind_xx01zvns2b_c1_scaffolds_chemok_bbok,BulkDock Fragalysis export,openbind_xx01zvns2b_c1_scaffolds

>  <placement_batch>  (71) 
openbind_xx01zvns2b_c1_knitwork_impure

>  <inspiration_score>  (71) 
None

>  <name>  (71) 
P56340

>  <HIPPO Pose ID>  (71) 
56340

>  <ref_pdb>  (71) 
Z0945a

>  <inchikey>  (71) 
DXFAONBVQWOFGN-UHFFFAOYSA-N

>  <alias>  (71) 
None

>  <ref_mols>  (71) 
Z0827a,Z0945a

>  <subsites>  (71) 
1 - Z4590/B/203/1

>  <distance_score>  (71) 
0.766998

>  <HIPPO Compound ID>  (71) 
63873

>  <smiles>  (71) 
c1cc([C@H]2CCCN2)ncn1

>  <energy_score>  (71) 
-11.616328

$$$$
P56341
     RDKit          3D

 11 12  0  0  0  0  0  0  0  0999 V2000
   -7.0536    4.7070  -12.1312 C   0  0  0  0  0  0  0  0  0  0  0  0
   -8.0101    4.4544  -13.0262 C   0  0  0  0  0  0  0  0  0  0  0  0
   -8.1522    5.5934  -13.9805 C   0  0  2  0  0  0  0  0  0  0  0  0
   -7.7473    5.2463  -15.4110 C   0  0  0  0  0  0  0  0  0  0  0  0
   -8.6624    4.6122  -16.2359 C   0  0  0  0  0  0  0  0  0  0  0  0
   -8.2722    4.3955  -17.5364 C   0  0  0  0  0  0  0  0  0  0  0  0
   -7.0606    4.7279  -18.0106 N   0  0  0  0  0  0  0  0  0  0  0  0
   -6.2293    5.2889  -17.1266 C   0  0  0  0  0  0  0  0  0  0  0  0
   -6.5076    5.5808  -15.8497 N   0  0  0  0  0  0  0  0  0  0  0  0
   -7.3378    6.6877  -13.3645 N   0  0  0  0  0  0  0  0  0  0  0  0
   -6.4265    6.0216  -12.4147 C   0  0  0  0  0  0  0  0  0  0  0  0
  1  2  2  0
  2  3  1  0
  3  4  1  6
  4  5  2  0
  5  6  1  0
  6  7  2  0
  7  8  1  0
  8  9  2  0
  3 10  1  0
 10 11  1  0
 11  1  1  0
  9  4  1  0
M  END
>  <tags>  (72) 
openbind_xx01zvns2b_c1_knitwork_impure,BulkDock Fragalysis export,fragmenstein_placed,openbind_xx01zvns2b_c1_scaffolds

>  <placement_batch>  (72) 
openbind_xx01zvns2b_c1_knitwork_impure

>  <inspiration_score>  (72) 
None

>  <name>  (72) 
P56341

>  <HIPPO Pose ID>  (72) 
56341

>  <ref_pdb>  (72) 
Z0945a

>  <inchikey>  (72) 
YSIPXVMEADCIFY-UHFFFAOYSA-N

>  <alias>  (72) 
None

>  <ref_mols>  (72) 
Z0827a,Z0945a

>  <subsites>  (72) 
1 - Z4590/B/203/1

>  <distance_score>  (72) 
0.7161

>  <HIPPO Compound ID>  (72) 
63879

>  <smiles>  (72) 
C1=C[C@H](c2ccncn2)NC1

>  <energy_score>  (72) 
-9.216944

$$$$
P56349
     RDKit          3D

 11 12  0  0  0  0  0  0  0  0999 V2000
   -8.0515    4.6409  -12.9115 C   0  0  0  0  0  0  0  0  0  0  0  0
   -7.4145    5.2719  -13.9037 C   0  0  0  0  0  0  0  0  0  0  0  0
   -7.5358    5.0762  -15.3458 C   0  0  0  0  0  0  0  0  0  0  0  0
   -8.6013    4.4020  -15.9054 C   0  0  0  0  0  0  0  0  0  0  0  0
   -8.6108    4.3101  -17.2759 C   0  0  0  0  0  0  0  0  0  0  0  0
   -7.6400    4.8114  -18.0548 N   0  0  0  0  0  0  0  0  0  0  0  0
   -6.6439    5.4297  -17.4157 C   0  0  0  0  0  0  0  0  0  0  0  0
   -6.5512    5.6205  -16.0926 N   0  0  0  0  0  0  0  0  0  0  0  0
   -6.4133    6.2210  -13.3435 C   0  0  0  0  0  0  0  0  0  0  0  0
   -6.6376    6.2278  -11.8801 N   0  0  0  0  0  0  0  0  0  0  0  0
   -7.5485    5.1003  -11.5941 C   0  0  0  0  0  0  0  0  0  0  0  0
  1  2  2  0
  2  3  1  0
  3  4  2  0
  4  5  1  0
  5  6  2  0
  6  7  1  0
  7  8  2  0
  2  9  1  0
  9 10  1  0
 10 11  1  0
 11  1  1  0
  8  3  1  0
M  END
>  <tags>  (73) 
openbind_xx01zvns2b_c1_knitwork_impure,fragmenstein_placed,openbind_xx01zvns2b_c1_scaffolds_chemok_bbok,BulkDock Fragalysis export,openbind_xx01zvns2b_c1_scaffolds

>  <placement_batch>  (73) 
openbind_xx01zvns2b_c1_knitwork_impure

>  <inspiration_score>  (73) 
None

>  <name>  (73) 
P56349

>  <HIPPO Pose ID>  (73) 
56349

>  <ref_pdb>  (73) 
Z0945a

>  <inchikey>  (73) 
LLNQURUDUZJXBB-UHFFFAOYSA-N

>  <alias>  (73) 
None

>  <ref_mols>  (73) 
Z0827a,Z0945a

>  <subsites>  (73) 
1 - Z4590/B/203/1

>  <distance_score>  (73) 
0.728139

>  <HIPPO Compound ID>  (73) 
63904

>  <smiles>  (73) 
C1=C(c2ccncn2)CNC1

>  <energy_score>  (73) 
-11.696335

$$$$
P56351
     RDKit          3D

 12 14  0  0  0  0  0  0  0  0999 V2000
   -8.6681    4.3774  -16.8681 C   0  0  0  0  0  0  0  0  0  0  0  0
   -8.4788    4.4713  -15.5096 C   0  0  0  0  0  0  0  0  0  0  0  0
   -7.3039    5.0586  -15.0684 C   0  0  0  0  0  0  0  0  0  0  0  0
   -7.0204    5.2243  -13.5959 C   0  0  2  0  0  0  0  0  0  0  0  0
   -6.3627    4.0589  -12.9011 C   0  0  0  0  0  0  0  0  0  0  0  0
   -6.7060    4.2218  -11.4734 N   0  0  0  0  0  0  0  0  0  0  0  0
   -7.9967    4.9285  -11.4126 C   0  0  0  0  0  0  0  0  0  0  0  0
   -8.0150    5.7842  -12.6396 C   0  0  1  0  0  0  0  0  0  0  0  0
   -6.8437    6.6369  -13.0512 C   0  0  0  0  0  0  0  0  0  0  0  0
   -6.3785    5.5019  -15.9523 N   0  0  0  0  0  0  0  0  0  0  0  0
   -6.6511    5.3290  -17.2550 C   0  0  0  0  0  0  0  0  0  0  0  0
   -7.7655    4.7975  -17.7655 N   0  0  0  0  0  0  0  0  0  0  0  0
  1  2  2  0
  2  3  1  0
  4  3  1  6
  4  5  1  0
  5  6  1  0
  6  7  1  0
  8  7  1  1
  8  9  1  0
  3 10  2  0
 10 11  1  0
 11 12  2  0
 12  1  1  0
  8  4  1  0
  9  4  1  0
M  END
>  <tags>  (74) 
openbind_xx01zvns2b_c1_knitwork_impure,fragmenstein_placed,openbind_xx01zvns2b_c1_scaffolds_chemok_bbok,BulkDock Fragalysis export,openbind_xx01zvns2b_c1_scaffolds

>  <placement_batch>  (74) 
openbind_xx01zvns2b_c1_knitwork_impure

>  <inspiration_score>  (74) 
None

>  <name>  (74) 
P56351

>  <HIPPO Pose ID>  (74) 
56351

>  <ref_pdb>  (74) 
Z0945a

>  <inchikey>  (74) 
QHCDAQMXTUKXAS-UHFFFAOYSA-N

>  <alias>  (74) 
None

>  <ref_mols>  (74) 
Z0827a,Z0945a

>  <subsites>  (74) 
1 - Z4590/B/203/1

>  <distance_score>  (74) 
0.715853

>  <HIPPO Compound ID>  (74) 
63914

>  <smiles>  (74) 
c1cc([C@]23CNC[C@H]2C3)ncn1

>  <energy_score>  (74) 
-15.656563

$$$$
P56471
     RDKit          3D

 11 12  0  0  0  0  0  0  0  0999 V2000
   -9.2028    4.2990  -17.6194 C   0  0  0  0  0  0  0  0  0  0  0  0
   -8.0065    4.5575  -18.2361 C   0  0  0  0  0  0  0  0  0  0  0  0
   -7.1220    4.7796  -17.2208 N   0  0  0  0  0  0  0  0  0  0  0  0
   -7.8033    4.6793  -16.0276 C   0  0  0  0  0  0  0  0  0  0  0  0
   -7.1375    4.9784  -14.7075 C   0  0  2  0  0  0  0  0  0  0  0  0
   -6.2042    3.8388  -14.2407 C   0  0  0  0  0  0  0  0  0  0  0  0
   -6.8704    2.6865  -13.6229 N   0  0  0  0  0  0  0  0  0  0  0  0
   -7.4979    3.0413  -12.3330 C   0  0  0  0  0  0  0  0  0  0  0  0
   -7.7176    4.5296  -12.0170 C   0  0  0  0  0  0  0  0  0  0  0  0
   -8.3574    5.4907  -13.4252 S   0  0  0  0  0  0  0  0  0  0  0  0
   -9.0568    4.3367  -16.2585 N   0  0  0  0  0  0  0  0  0  0  0  0
  1  2  2  0
  2  3  1  0
  3  4  1  0
  5  4  1  6
  5  6  1  0
  6  7  1  0
  7  8  1  0
  8  9  1  0
  9 10  1  0
  4 11  2  0
 11  1  1  0
 10  5  1  0
M  END
>  <tags>  (75) 
openbind_xx01zvns2b_c1_knitwork_impure,BulkDock Fragalysis export,fragmenstein_placed,openbind_xx01zvns2b_c1_scaffolds

>  <placement_batch>  (75) 
openbind_xx01zvns2b_c1_knitwork_impure

>  <inspiration_score>  (75) 
None

>  <name>  (75) 
P56471

>  <HIPPO Pose ID>  (75) 
56471

>  <ref_pdb>  (75) 
Z0719a

>  <inchikey>  (75) 
OGNBYYUMCGRJAQ-UHFFFAOYSA-N

>  <alias>  (75) 
None

>  <ref_mols>  (75) 
Z0827a,Z0719a

>  <subsites>  (75) 
1 - Z4590/B/203/1

>  <distance_score>  (75) 
0.962412

>  <HIPPO Compound ID>  (75) 
60001

>  <smiles>  (75) 
c1c[nH]c([C@@H]2CNCCS2)n1

>  <energy_score>  (75) 
-13.200157

$$$$
P56490
     RDKit          3D

 19 20  0  0  0  0  0  0  0  0999 V2000
   -0.5914    7.9172  -21.8461 C   0  0  0  0  0  0  0  0  0  0  0  0
   -0.6310    6.5361  -21.2088 C   0  0  2  0  0  0  0  0  0  0  0  0
    0.7207    6.1145  -21.0144 O   0  0  0  0  0  0  0  0  0  0  0  0
   -1.3451    5.4929  -22.0694 C   0  0  0  0  0  0  0  0  0  0  0  0
   -2.7977    5.7859  -22.4101 C   0  0  0  0  0  0  0  0  0  0  0  0
   -3.6737    5.9414  -21.2775 N   0  0  0  0  0  0  0  0  0  0  0  0
   -3.6691    5.3032  -19.9820 C   0  0  0  0  0  0  0  0  0  0  0  0
   -2.8882    4.5391  -19.4894 O   0  0  0  0  0  0  0  0  0  0  0  0
   -4.8786    5.7864  -19.1569 C   0  0  0  0  0  0  0  0  0  0  0  0
   -5.8432    4.7453  -18.9333 N   0  0  0  0  0  0  0  0  0  0  0  0
   -6.5161    4.0919  -19.9933 C   0  0  0  0  0  0  0  0  0  0  0  0
   -6.1487    3.9917  -21.1558 O   0  0  0  0  0  0  0  0  0  0  0  0
   -7.7067    3.5805  -19.4637 N   0  0  0  0  0  0  0  0  0  0  0  0
   -7.8061    3.9629  -18.1346 C   0  0  0  0  0  0  0  0  0  0  0  0
   -8.8323    3.7423  -17.2506 C   0  0  0  0  0  0  0  0  0  0  0  0
   -8.6532    4.2125  -15.9477 C   0  0  0  0  0  0  0  0  0  0  0  0
   -7.4840    4.9092  -15.5808 C   0  0  0  0  0  0  0  0  0  0  0  0
   -6.4733    5.1615  -16.5155 C   0  0  0  0  0  0  0  0  0  0  0  0
   -6.6576    4.6708  -17.7907 C   0  0  0  0  0  0  0  0  0  0  0  0
  2  1  1  6
  2  3  1  0
  2  4  1  0
  4  5  1  0
  5  6  1  0
  6  7  1  0
  7  8  2  0
  7  9  1  0
  9 10  1  0
 10 11  1  0
 11 12  2  0
 11 13  1  0
 13 14  1  0
 14 15  2  0
 15 16  1  0
 16 17  2  0
 17 18  1  0
 18 19  2  0
 19 10  1  0
 19 14  1  0
M  END
>  <tags>  (76) 
openbind_xx01zvns2b_c1_knitwork_impure,fragmenstein_placed,openbind_xx01zvns2b_c1_scaffolds_chemok_bbok,BulkDock Fragalysis export,openbind_xx01zvns2b_c1_scaffolds

>  <placement_batch>  (76) 
openbind_xx01zvns2b_c1_knitwork_impure

>  <inspiration_score>  (76) 
None

>  <name>  (76) 
P56490

>  <HIPPO Pose ID>  (76) 
56490

>  <ref_pdb>  (76) 
Z4245a

>  <inchikey>  (76) 
TVKBRMMOPCQDOT-UHFFFAOYSA-N

>  <alias>  (76) 
None

>  <ref_mols>  (76) 
Z0101a,Z4245a

>  <subsites>  (76) 
1 - Z4590/B/203/1

>  <distance_score>  (76) 
0.993404

>  <HIPPO Compound ID>  (76) 
65015

>  <smiles>  (76) 
C[C@H](O)CCNC(=O)Cn1c(=O)[nH]c2ccccc21

>  <energy_score>  (76) 
-5.648635

$$$$
P56491
     RDKit          3D

 19 20  0  0  0  0  0  0  0  0999 V2000
   -2.2176    5.5305  -23.9534 C   0  0  0  0  0  0  0  0  0  0  0  0
   -2.2050    5.8359  -22.4629 C   0  0  1  0  0  0  0  0  0  0  0  0
   -0.8634    6.1142  -22.0789 O   0  0  0  0  0  0  0  0  0  0  0  0
   -3.0973    7.0351  -22.1295 C   0  0  0  0  0  0  0  0  0  0  0  0
   -3.0874    7.3989  -20.6468 C   0  0  0  0  0  0  0  0  0  0  0  0
   -3.4894    6.3029  -19.8080 N   0  0  0  0  0  0  0  0  0  0  0  0
   -3.3887    6.1214  -18.2699 C   0  0  0  0  0  0  0  0  0  0  0  0
   -2.8941    6.8011  -17.4582 O   0  0  0  0  0  0  0  0  0  0  0  0
   -3.9956    4.7488  -17.9415 C   0  0  0  0  0  0  0  0  0  0  0  0
   -5.4190    4.7137  -18.1446 N   0  0  0  0  0  0  0  0  0  0  0  0
   -6.0485    4.4806  -19.3805 C   0  0  0  0  0  0  0  0  0  0  0  0
   -5.4915    4.4280  -20.4685 O   0  0  0  0  0  0  0  0  0  0  0  0
   -7.4093    4.3181  -19.1138 N   0  0  0  0  0  0  0  0  0  0  0  0
   -7.6136    4.3791  -17.7448 C   0  0  0  0  0  0  0  0  0  0  0  0
   -8.7698    4.1903  -17.0298 C   0  0  0  0  0  0  0  0  0  0  0  0
   -8.6556    4.2659  -15.6401 C   0  0  0  0  0  0  0  0  0  0  0  0
   -7.4242    4.5400  -15.0126 C   0  0  0  0  0  0  0  0  0  0  0  0
   -6.2646    4.7338  -15.7652 C   0  0  0  0  0  0  0  0  0  0  0  0
   -6.3851    4.6352  -17.1335 C   0  0  0  0  0  0  0  0  0  0  0  0
  2  1  1  6
  2  3  1  0
  2  4  1  0
  4  5  1  0
  5  6  1  0
  6  7  1  0
  7  8  2  0
  7  9  1  0
  9 10  1  0
 10 11  1  0
 11 12  2  0
 11 13  1  0
 13 14  1  0
 14 15  2  0
 15 16  1  0
 16 17  2  0
 17 18  1  0
 18 19  2  0
 19 10  1  0
 19 14  1  0
M  END
>  <tags>  (77) 
openbind_xx01zvns2b_c1_knitwork_impure,BulkDock Fragalysis export,fragmenstein_placed,openbind_xx01zvns2b_c1_scaffolds

>  <placement_batch>  (77) 
openbind_xx01zvns2b_c1_knitwork_impure

>  <inspiration_score>  (77) 
None

>  <name>  (77) 
P56491

>  <HIPPO Pose ID>  (77) 
56491

>  <ref_pdb>  (77) 
Z0101a

>  <inchikey>  (77) 
WHPBDVNGNULTBK-UHFFFAOYSA-N

>  <alias>  (77) 
None

>  <ref_mols>  (77) 
Z0101a,Z4245a

>  <subsites>  (77) 
1 - Z4590/B/203/1

>  <distance_score>  (77) 
0.668905

>  <HIPPO Compound ID>  (77) 
65015

>  <smiles>  (77) 
C[C@@H](O)CCNC(=O)Cn1c(=O)[nH]c2ccccc21

>  <energy_score>  (77) 
-9.086702

$$$$
P56492
     RDKit          3D

 20 21  0  0  0  0  0  0  0  0999 V2000
   -3.2983    6.4013  -17.1202 O   0  0  0  0  0  0  0  0  0  0  0  0
   -3.7063    5.9360  -18.1106 C   0  0  0  0  0  0  0  0  0  0  0  0
   -5.0801    6.2702  -18.6748 C   0  0  0  0  0  0  0  0  0  0  0  0
   -5.9580    5.1366  -18.6368 N   0  0  0  0  0  0  0  0  0  0  0  0
   -6.3653    4.3900  -19.7595 C   0  0  0  0  0  0  0  0  0  0  0  0
   -5.8057    4.3417  -20.8460 O   0  0  0  0  0  0  0  0  0  0  0  0
   -7.5298    3.7043  -19.3782 N   0  0  0  0  0  0  0  0  0  0  0  0
   -7.8065    4.0058  -18.0498 C   0  0  0  0  0  0  0  0  0  0  0  0
   -8.8607    3.6085  -17.2721 C   0  0  0  0  0  0  0  0  0  0  0  0
   -8.8485    4.0266  -15.9383 C   0  0  0  0  0  0  0  0  0  0  0  0
   -7.8077    4.8256  -15.4253 C   0  0  0  0  0  0  0  0  0  0  0  0
   -6.7712    5.2584  -16.2529 C   0  0  0  0  0  0  0  0  0  0  0  0
   -6.8069    4.8428  -17.5665 C   0  0  0  0  0  0  0  0  0  0  0  0
   -3.0191    5.0054  -19.1390 N   0  0  0  0  0  0  0  0  0  0  0  0
   -1.6587    4.5315  -19.2109 C   0  0  0  0  0  0  0  0  0  0  0  0
   -0.5785    5.5744  -18.8671 C   0  0  2  0  0  0  0  0  0  0  0  0
   -0.6080    5.9472  -17.4773 O   0  0  0  0  0  0  0  0  0  0  0  0
   -0.6035    6.7977  -19.7836 C   0  0  0  0  0  0  0  0  0  0  0  0
   -0.4380    6.4352  -21.0808 F   0  0  0  0  0  0  0  0  0  0  0  0
   -1.7973    7.4455  -19.7179 F   0  0  0  0  0  0  0  0  0  0  0  0
  1  2  2  0
  2  3  1  0
  3  4  1  0
  4  5  1  0
  5  6  2  0
  5  7  1  0
  7  8  1  0
  8  9  2  0
  9 10  1  0
 10 11  2  0
 11 12  1  0
 12 13  2  0
  2 14  1  0
 14 15  1  0
 15 16  1  0
 16 17  1  1
 16 18  1  0
 18 19  1  0
 18 20  1  0
 13  4  1  0
 13  8  1  0
M  END
>  <tags>  (78) 
openbind_xx01zvns2b_c1_knitwork_impure,fragmenstein_placed,openbind_xx01zvns2b_c1_scaffolds_chemok_bbok,BulkDock Fragalysis export,openbind_xx01zvns2b_c1_scaffolds

>  <placement_batch>  (78) 
openbind_xx01zvns2b_c1_knitwork_impure

>  <inspiration_score>  (78) 
None

>  <name>  (78) 
P56492

>  <HIPPO Pose ID>  (78) 
56492

>  <ref_pdb>  (78) 
Z4245a

>  <inchikey>  (78) 
SALDWJVXYJXUEF-UHFFFAOYSA-N

>  <alias>  (78) 
None

>  <ref_mols>  (78) 
Z0101a,Z4245a

>  <subsites>  (78) 
1 - Z4590/B/203/1

>  <distance_score>  (78) 
0.635432

>  <HIPPO Compound ID>  (78) 
65024

>  <smiles>  (78) 
O=C(Cn1c(=O)[nH]c2ccccc21)NC[C@H](O)C(F)F

>  <energy_score>  (78) 
-17.663196

$$$$
P56493
     RDKit          3D

 19 20  0  0  0  0  0  0  0  0999 V2000
   -3.5482    6.4582  -23.7033 C   0  0  0  0  0  0  0  0  0  0  0  0
   -4.9459    6.9640  -23.3348 C   0  0  2  0  0  0  0  0  0  0  0  0
   -5.4611    7.9640  -24.3764 C   0  0  0  0  0  0  0  0  0  0  0  0
   -4.6068    9.0922  -24.5058 O   0  0  0  0  0  0  0  0  0  0  0  0
   -4.9444    7.5815  -21.9337 C   0  0  0  0  0  0  0  0  0  0  0  0
   -4.8152    6.5966  -20.8947 N   0  0  0  0  0  0  0  0  0  0  0  0
   -4.5507    6.7647  -19.3725 C   0  0  0  0  0  0  0  0  0  0  0  0
   -4.3212    7.7242  -18.7450 O   0  0  0  0  0  0  0  0  0  0  0  0
   -4.5320    5.3504  -18.7603 C   0  0  0  0  0  0  0  0  0  0  0  0
   -5.8491    4.7780  -18.7214 N   0  0  0  0  0  0  0  0  0  0  0  0
   -6.4897    4.1531  -19.8077 C   0  0  0  0  0  0  0  0  0  0  0  0
   -6.0231    4.0096  -20.9301 O   0  0  0  0  0  0  0  0  0  0  0  0
   -7.7407    3.7282  -19.3526 N   0  0  0  0  0  0  0  0  0  0  0  0
   -7.8653    4.0719  -18.0126 C   0  0  0  0  0  0  0  0  0  0  0  0
   -8.9135    3.8399  -17.1588 C   0  0  0  0  0  0  0  0  0  0  0  0
   -8.7314    4.2165  -15.8260 C   0  0  0  0  0  0  0  0  0  0  0  0
   -7.5405    4.8370  -15.3977 C   0  0  0  0  0  0  0  0  0  0  0  0
   -6.5035    5.1019  -16.2985 C   0  0  0  0  0  0  0  0  0  0  0  0
   -6.6900    4.7030  -17.6043 C   0  0  0  0  0  0  0  0  0  0  0  0
  2  1  1  6
  2  3  1  0
  3  4  1  0
  2  5  1  0
  5  6  1  0
  6  7  1  0
  7  8  2  0
  7  9  1  0
  9 10  1  0
 10 11  1  0
 11 12  2  0
 11 13  1  0
 13 14  1  0
 14 15  2  0
 15 16  1  0
 16 17  2  0
 17 18  1  0
 18 19  2  0
 19 10  1  0
 19 14  1  0
M  END
>  <tags>  (79) 
openbind_xx01zvns2b_c1_knitwork_impure,fragmenstein_placed,openbind_xx01zvns2b_c1_scaffolds_chemok_bbok,BulkDock Fragalysis export,openbind_xx01zvns2b_c1_scaffolds

>  <placement_batch>  (79) 
openbind_xx01zvns2b_c1_knitwork_impure

>  <inspiration_score>  (79) 
None

>  <name>  (79) 
P56493

>  <HIPPO Pose ID>  (79) 
56493

>  <ref_pdb>  (79) 
Z4245a

>  <inchikey>  (79) 
RIZNQZOXTPMWOW-UHFFFAOYSA-N

>  <alias>  (79) 
None

>  <ref_mols>  (79) 
Z0101a,Z4245a

>  <subsites>  (79) 
1 - Z4590/B/203/1

>  <distance_score>  (79) 
0.762313

>  <HIPPO Compound ID>  (79) 
65040

>  <smiles>  (79) 
C[C@H](CO)CNC(=O)Cn1c(=O)[nH]c2ccccc21

>  <energy_score>  (79) 
-8.00353

$$$$
P56688
     RDKit          3D

 15 17  0  0  0  0  0  0  0  0999 V2000
   -8.7907    4.7808  -18.0661 C   0  0  0  0  0  0  0  0  0  0  0  0
   -7.4750    4.6130  -18.4163 C   0  0  0  0  0  0  0  0  0  0  0  0
   -6.8182    4.4218  -17.2358 N   0  0  0  0  0  0  0  0  0  0  0  0
   -7.7305    4.5016  -16.2120 C   0  0  0  0  0  0  0  0  0  0  0  0
   -7.3649    4.2978  -14.8128 C   0  0  0  0  0  0  0  0  0  0  0  0
   -8.2442    4.6432  -13.7992 C   0  0  0  0  0  0  0  0  0  0  0  0
   -7.9248    4.2914  -12.4946 C   0  0  0  0  0  0  0  0  0  0  0  0
   -6.7454    3.5851  -12.2404 C   0  0  0  0  0  0  0  0  0  0  0  0
   -5.8808    3.3360  -13.3133 C   0  0  0  0  0  0  0  0  0  0  0  0
   -6.1608    3.7082  -14.5897 N   0  0  0  0  0  0  0  0  0  0  0  0
   -4.6095    2.5489  -13.1176 C   0  0  0  0  0  0  0  0  0  0  0  0
   -4.1669    2.4502  -11.6603 C   0  0  0  0  0  0  0  0  0  0  0  0
   -5.3459    2.0637  -10.7763 C   0  0  0  0  0  0  0  0  0  0  0  0
   -6.4287    3.1399  -10.8359 C   0  0  0  0  0  0  0  0  0  0  0  0
   -8.9357    4.7421  -16.7023 N   0  0  0  0  0  0  0  0  0  0  0  0
  1  2  2  0
  2  3  1  0
  3  4  1  0
  4  5  1  0
  5  6  2  0
  6  7  1  0
  7  8  2  0
  8  9  1  0
  9 10  2  0
  9 11  1  0
 11 12  1  0
 12 13  1  0
 13 14  1  0
  4 15  2  0
 15  1  1  0
 10  5  1  0
 14  8  1  0
M  END
>  <tags>  (80) 
openbind_xx01zvns2b_c1_knitwork_impure,fragmenstein_placed,openbind_xx01zvns2b_c1_scaffolds_chemok_bbok,BulkDock Fragalysis export,openbind_xx01zvns2b_c1_scaffolds

>  <placement_batch>  (80) 
openbind_xx01zvns2b_c1_knitwork_impure

>  <inspiration_score>  (80) 
None

>  <name>  (80) 
P56688

>  <HIPPO Pose ID>  (80) 
56688

>  <ref_pdb>  (80) 
Z0719a

>  <inchikey>  (80) 
LLVGNVUZDRAGRF-UHFFFAOYSA-N

>  <alias>  (80) 
None

>  <ref_mols>  (80) 
Z0719a,Z1495a

>  <subsites>  (80) 
1 - Z4590/B/203/1

>  <distance_score>  (80) 
0.867151

>  <HIPPO Compound ID>  (80) 
59680

>  <smiles>  (80) 
c1c[nH]c(-c2ccc3c(n2)CCCC3)n1

>  <energy_score>  (80) 
-30.437963

$$$$
P56689
     RDKit          3D

 14 16  0  0  0  0  0  0  0  0999 V2000
   -8.7132    4.6671  -18.1741 C   0  0  0  0  0  0  0  0  0  0  0  0
   -7.3996    4.7299  -18.5574 C   0  0  0  0  0  0  0  0  0  0  0  0
   -6.6855    4.6754  -17.3963 N   0  0  0  0  0  0  0  0  0  0  0  0
   -7.5634    4.5670  -16.3463 C   0  0  0  0  0  0  0  0  0  0  0  0
   -7.2055    4.4463  -14.9338 C   0  0  0  0  0  0  0  0  0  0  0  0
   -8.2232    4.6342  -13.9930 C   0  0  0  0  0  0  0  0  0  0  0  0
   -8.1002    4.5169  -12.6424 N   0  0  0  0  0  0  0  0  0  0  0  0
   -6.9123    4.0812  -12.1868 C   0  0  0  0  0  0  0  0  0  0  0  0
   -5.8380    3.8796  -13.0254 C   0  0  0  0  0  0  0  0  0  0  0  0
   -5.9627    4.1184  -14.4026 C   0  0  0  0  0  0  0  0  0  0  0  0
   -4.6044    4.0231  -15.0267 C   0  0  0  0  0  0  0  0  0  0  0  0
   -3.8256    3.1904  -13.9983 C   0  0  0  0  0  0  0  0  0  0  0  0
   -4.4514    3.4881  -12.6355 C   0  0  0  0  0  0  0  0  0  0  0  0
   -8.8034    4.5760  -16.8122 N   0  0  0  0  0  0  0  0  0  0  0  0
  1  2  2  0
  2  3  1  0
  3  4  1  0
  4  5  1  0
  5  6  2  0
  6  7  1  0
  7  8  2  0
  8  9  1  0
  9 10  2  0
 10 11  1  0
 11 12  1  0
 12 13  1  0
  4 14  2  0
 14  1  1  0
 10  5  1  0
 13  9  1  0
M  END
>  <tags>  (81) 
openbind_xx01zvns2b_c1_knitwork_impure,BulkDock Fragalysis export,fragmenstein_placed,openbind_xx01zvns2b_c1_scaffolds

>  <placement_batch>  (81) 
openbind_xx01zvns2b_c1_knitwork_impure

>  <inspiration_score>  (81) 
None

>  <name>  (81) 
P56689

>  <HIPPO Pose ID>  (81) 
56689

>  <ref_pdb>  (81) 
Z0719a

>  <inchikey>  (81) 
YKRCQAIUNIVNKN-UHFFFAOYSA-N

>  <alias>  (81) 
None

>  <ref_mols>  (81) 
Z0719a,Z1495a

>  <subsites>  (81) 
1 - Z4590/B/203/1

>  <distance_score>  (81) 
0.986946

>  <HIPPO Compound ID>  (81) 
59685

>  <smiles>  (81) 
c1c[nH]c(-c2cncc3c2CCC3)n1

>  <energy_score>  (81) 
-10.617575

$$$$
P56690
     RDKit          3D

 14 16  0  0  0  0  0  0  0  0999 V2000
   -8.8155    4.7817  -18.1133 C   0  0  0  0  0  0  0  0  0  0  0  0
   -7.5026    4.5953  -18.4651 C   0  0  0  0  0  0  0  0  0  0  0  0
   -6.8450    4.4100  -17.2848 N   0  0  0  0  0  0  0  0  0  0  0  0
   -7.7537    4.5128  -16.2603 C   0  0  0  0  0  0  0  0  0  0  0  0
   -7.3810    4.3257  -14.8612 C   0  0  0  0  0  0  0  0  0  0  0  0
   -8.2417    4.7436  -13.8408 C   0  0  0  0  0  0  0  0  0  0  0  0
   -7.9363    4.4267  -12.5205 C   0  0  0  0  0  0  0  0  0  0  0  0
   -6.7971    3.6798  -12.2981 C   0  0  0  0  0  0  0  0  0  0  0  0
   -5.9744    3.3401  -13.3686 C   0  0  0  0  0  0  0  0  0  0  0  0
   -6.1988    3.6833  -14.6482 N   0  0  0  0  0  0  0  0  0  0  0  0
   -4.7952    2.5358  -12.8942 C   0  0  0  0  0  0  0  0  0  0  0  0
   -5.3043    2.0503  -11.5300 C   0  0  0  0  0  0  0  0  0  0  0  0
   -6.2677    3.1294  -11.0141 C   0  0  0  0  0  0  0  0  0  0  0  0
   -8.9584    4.7574  -16.7491 N   0  0  0  0  0  0  0  0  0  0  0  0
  1  2  2  0
  2  3  1  0
  3  4  1  0
  4  5  1  0
  5  6  2  0
  6  7  1  0
  7  8  2  0
  8  9  1  0
  9 10  2  0
  9 11  1  0
 11 12  1  0
 12 13  1  0
  4 14  2  0
 14  1  1  0
 10  5  1  0
 13  8  1  0
M  END
>  <tags>  (82) 
openbind_xx01zvns2b_c1_knitwork_impure,fragmenstein_placed,openbind_xx01zvns2b_c1_scaffolds_chemok_bbok,BulkDock Fragalysis export,openbind_xx01zvns2b_c1_scaffolds

>  <placement_batch>  (82) 
openbind_xx01zvns2b_c1_knitwork_impure

>  <inspiration_score>  (82) 
None

>  <name>  (82) 
P56690

>  <HIPPO Pose ID>  (82) 
56690

>  <ref_pdb>  (82) 
Z0719a

>  <inchikey>  (82) 
ZHEXKJJYJURADK-UHFFFAOYSA-N

>  <alias>  (82) 
None

>  <ref_mols>  (82) 
Z0719a,Z1495a

>  <subsites>  (82) 
1 - Z4590/B/203/1

>  <distance_score>  (82) 
0.960008

>  <HIPPO Compound ID>  (82) 
59690

>  <smiles>  (82) 
c1c[nH]c(-c2ccc3c(n2)CCC3)n1

>  <energy_score>  (82) 
-32.963398

$$$$
P56782
     RDKit          3D

 15 17  0  0  0  0  0  0  0  0999 V2000
   -7.0116    4.8374  -14.1279 C   0  0  0  0  0  0  0  0  0  0  0  0
   -5.7924    5.3603  -14.4984 N   0  0  0  0  0  0  0  0  0  0  0  0
   -5.5814    5.5404  -15.7614 C   0  0  0  0  0  0  0  0  0  0  0  0
   -6.5782    5.2014  -16.7101 C   0  0  0  0  0  0  0  0  0  0  0  0
   -6.6906    5.3098  -18.0824 C   0  0  0  0  0  0  0  0  0  0  0  0
   -5.7815    5.9292  -19.0844 C   0  0  1  0  0  0  0  0  0  0  0  0
   -5.6304    7.4411  -18.8880 C   0  0  0  0  0  0  0  0  0  0  0  0
   -4.7524    8.0249  -19.9915 C   0  0  0  0  0  0  0  0  0  0  0  0
   -3.4394    7.2534  -20.1310 C   0  0  0  0  0  0  0  0  0  0  0  0
   -3.6727    5.8205  -20.3497 N   0  0  0  0  0  0  0  0  0  0  0  0
   -4.4024    5.2605  -19.1887 C   0  0  0  0  0  0  0  0  0  0  0  0
   -7.9442    4.7208  -18.4180 C   0  0  0  0  0  0  0  0  0  0  0  0
   -8.5724    4.3741  -17.2476 C   0  0  0  0  0  0  0  0  0  0  0  0
   -7.7300    4.6661  -16.2163 N   0  0  0  0  0  0  0  0  0  0  0  0
   -7.9879    4.5026  -14.9101 N   0  0  0  0  0  0  0  0  0  0  0  0
  1  2  1  0
  2  3  2  0
  3  4  1  0
  4  5  2  0
  6  5  1  1
  6  7  1  0
  7  8  1  0
  8  9  1  0
  9 10  1  0
 10 11  1  0
  5 12  1  0
 12 13  2  0
 13 14  1  0
 14 15  1  0
 15  1  2  0
 14  4  1  0
 11  6  1  0
M  END
>  <tags>  (83) 
openbind_xx01zvns2b_c1_knitwork_impure,fragmenstein_placed,openbind_xx01zvns2b_c1_scaffolds_chemok_bbok,BulkDock Fragalysis export,openbind_xx01zvns2b_c1_scaffolds

>  <placement_batch>  (83) 
openbind_xx01zvns2b_c1_knitwork_impure

>  <inspiration_score>  (83) 
None

>  <name>  (83) 
P56782

>  <HIPPO Pose ID>  (83) 
56782

>  <ref_pdb>  (83) 
Z0917a

>  <inchikey>  (83) 
ZFEZBINVSXMQST-UHFFFAOYSA-N

>  <alias>  (83) 
None

>  <ref_mols>  (83) 
Z0917a,Z1719a

>  <subsites>  (83) 
1 - Z4590/B/203/1

>  <distance_score>  (83) 
0.934229

>  <HIPPO Compound ID>  (83) 
65566

>  <smiles>  (83) 
c1ncc2c([C@H]3CCCNC3)ccn2n1

>  <energy_score>  (83) 
-29.497263

$$$$
P56788
     RDKit          3D

 15 17  0  0  0  0  0  0  0  0999 V2000
   -7.6641    4.7252  -14.1423 C   0  0  0  0  0  0  0  0  0  0  0  0
   -6.3880    5.2475  -14.1174 N   0  0  0  0  0  0  0  0  0  0  0  0
   -5.8550    5.5620  -15.2516 C   0  0  0  0  0  0  0  0  0  0  0  0
   -6.5723    5.3628  -16.4562 C   0  0  0  0  0  0  0  0  0  0  0  0
   -6.2813    5.5825  -17.7861 C   0  0  0  0  0  0  0  0  0  0  0  0
   -5.0177    6.1488  -18.3556 C   0  0  0  0  0  0  0  0  0  0  0  0
   -4.0481    4.9778  -18.5995 C   0  0  0  0  0  0  0  0  0  0  0  0
   -2.8875    5.3429  -19.5045 C   0  0  0  0  0  0  0  0  0  0  0  0
   -3.4282    5.9129  -20.7436 N   0  0  0  0  0  0  0  0  0  0  0  0
   -4.0063    7.2283  -20.4240 C   0  0  0  0  0  0  0  0  0  0  0  0
   -5.2687    7.0289  -19.5956 C   0  0  0  0  0  0  0  0  0  0  0  0
   -7.3740    5.0222  -18.5105 C   0  0  0  0  0  0  0  0  0  0  0  0
   -8.3182    4.6051  -17.6008 C   0  0  0  0  0  0  0  0  0  0  0  0
   -7.8112    4.8111  -16.3511 N   0  0  0  0  0  0  0  0  0  0  0  0
   -8.4050    4.5197  -15.1858 N   0  0  0  0  0  0  0  0  0  0  0  0
  1  2  1  0
  2  3  2  0
  3  4  1  0
  4  5  2  0
  5  6  1  0
  6  7  1  0
  7  8  1  0
  8  9  1  0
  9 10  1  0
 10 11  1  0
  5 12  1  0
 12 13  2  0
 13 14  1  0
 14 15  1  0
 15  1  2  0
 14  4  1  0
 11  6  1  0
M  END
>  <tags>  (84) 
openbind_xx01zvns2b_c1_knitwork_impure,BulkDock Fragalysis export,fragmenstein_placed,openbind_xx01zvns2b_c1_scaffolds

>  <placement_batch>  (84) 
openbind_xx01zvns2b_c1_knitwork_impure

>  <inspiration_score>  (84) 
None

>  <name>  (84) 
P56788

>  <HIPPO Pose ID>  (84) 
56788

>  <ref_pdb>  (84) 
Z0917a

>  <inchikey>  (84) 
WXTNJEVKKMFWCW-UHFFFAOYSA-N

>  <alias>  (84) 
None

>  <ref_mols>  (84) 
Z0917a,Z1719a

>  <subsites>  (84) 
1 - Z4590/B/203/1

>  <distance_score>  (84) 
0.931436

>  <HIPPO Compound ID>  (84) 
65589

>  <smiles>  (84) 
c1ncc2c(C3CCNCC3)ccn2n1

>  <energy_score>  (84) 
-22.38609

$$$$
P56823
     RDKit          3D

 14 14  0  0  0  0  0  0  0  0999 V2000
   -8.1667    4.4525  -14.1707 C   0  0  0  0  0  0  0  0  0  0  0  0
   -8.4268    4.7000  -15.6466 C   0  0  0  0  0  0  0  0  0  0  0  0
   -7.1732    4.9971  -16.4128 N   0  0  0  0  0  0  0  0  0  0  0  0
   -6.3320    6.0348  -15.7824 C   0  0  0  0  0  0  0  0  0  0  0  0
   -7.4692    5.2174  -18.0685 S   0  0  0  0  0  0  0  0  0  0  0  0
   -8.6033    4.4050  -18.4383 O   0  0  0  0  0  0  0  0  0  0  0  0
   -7.4118    6.6340  -18.3263 O   0  0  0  0  0  0  0  0  0  0  0  0
   -6.1537    4.4980  -18.7725 N   0  0  0  0  0  0  0  0  0  0  0  0
   -4.8313    5.1203  -18.9574 C   0  0  2  0  0  0  0  0  0  0  0  0
   -3.8824    4.8100  -17.7972 C   0  0  0  0  0  0  0  0  0  0  0  0
   -2.8573    5.9208  -17.5816 C   0  0  0  0  0  0  0  0  0  0  0  0
   -2.3940    6.4970  -18.9182 C   0  0  0  0  0  0  0  0  0  0  0  0
   -3.4682    7.1051  -19.7033 N   0  0  0  0  0  0  0  0  0  0  0  0
   -4.8130    6.6046  -19.3613 C   0  0  0  0  0  0  0  0  0  0  0  0
  1  2  1  0
  2  3  1  0
  3  4  1  0
  3  5  1  0
  5  6  2  0
  5  7  2  0
  5  8  1  0
  9  8  1  1
  9 10  1  0
 10 11  1  0
 11 12  1  0
 12 13  1  0
 13 14  1  0
 14  9  1  0
M  END
>  <tags>  (85) 
openbind_xx01zvns2b_c1_knitwork_impure,BulkDock Fragalysis export,fragmenstein_placed,openbind_xx01zvns2b_c1_scaffolds

>  <placement_batch>  (85) 
openbind_xx01zvns2b_c1_knitwork_impure

>  <inspiration_score>  (85) 
None

>  <name>  (85) 
P56823

>  <HIPPO Pose ID>  (85) 
56823

>  <ref_pdb>  (85) 
Z0827a

>  <inchikey>  (85) 
IVDVPCUQHVXHTQ-UHFFFAOYSA-N

>  <alias>  (85) 
None

>  <ref_mols>  (85) 
Z0827a,Z1046b

>  <subsites>  (85) 
1 - Z4590/B/203/1

>  <distance_score>  (85) 
0.842294

>  <HIPPO Compound ID>  (85) 
65642

>  <smiles>  (85) 
CCN(C)S(=O)(=O)N[C@@H]1CCCNC1

>  <energy_score>  (85) 
-38.628012

$$$$
P56946
     RDKit          3D

 22 24  0  0  0  0  0  0  0  0999 V2000
  -10.7797    2.5314   -5.3915 C   0  0  0  0  0  0  0  0  0  0  0  0
   -9.4981    3.1989   -5.8525 C   0  0  0  0  0  0  0  0  0  0  0  0
   -8.6627    2.2822   -6.7361 C   0  0  0  0  0  0  0  0  0  0  0  0
   -9.0925    2.2260   -8.1203 N   0  0  0  0  0  0  0  0  0  0  0  0
   -8.7281    3.3030   -8.9216 C   0  0  0  0  0  0  0  0  0  0  0  0
   -8.6654    3.1271  -10.2848 C   0  0  0  0  0  0  0  0  0  0  0  0
   -8.2009    4.1809  -11.0368 C   0  0  0  0  0  0  0  0  0  0  0  0
   -7.9351    3.9715  -12.3993 N   0  0  0  0  0  0  0  0  0  0  0  0
   -7.4515    5.1732  -13.0446 C   0  0  0  0  0  0  0  0  0  0  0  0
   -7.2374    4.9509  -14.5100 C   0  0  0  0  0  0  0  0  0  0  0  0
   -5.9730    5.1441  -15.0787 C   0  0  0  0  0  0  0  0  0  0  0  0
   -5.8056    5.0644  -16.4541 C   0  0  0  0  0  0  0  0  0  0  0  0
   -6.9005    4.7788  -17.2711 C   0  0  0  0  0  0  0  0  0  0  0  0
   -8.1644    4.5509  -16.6973 C   0  0  0  0  0  0  0  0  0  0  0  0
   -8.3248    4.6311  -15.3229 C   0  0  0  0  0  0  0  0  0  0  0  0
   -9.3366    4.1941  -17.5606 C   0  0  0  0  0  0  0  0  0  0  0  0
   -9.1073    4.7095  -18.9587 C   0  0  0  0  0  0  0  0  0  0  0  0
   -7.8369    4.2232  -19.5139 N   0  0  0  0  0  0  0  0  0  0  0  0
   -6.7237    4.8105  -18.7633 C   0  0  0  0  0  0  0  0  0  0  0  0
   -7.8918    5.3655  -10.4821 N   0  0  0  0  0  0  0  0  0  0  0  0
   -8.0120    5.4482   -9.1592 C   0  0  0  0  0  0  0  0  0  0  0  0
   -8.4033    4.4713   -8.3479 N   0  0  0  0  0  0  0  0  0  0  0  0
  1  2  1  0
  2  3  1  0
  3  4  1  0
  4  5  1  0
  5  6  2  0
  6  7  1  0
  7  8  1  0
  8  9  1  0
  9 10  1  0
 10 11  2  0
 11 12  1  0
 12 13  2  0
 13 14  1  0
 14 15  2  0
 14 16  1  0
 16 17  1  0
 17 18  1  0
 18 19  1  0
  7 20  2  0
 20 21  1  0
 21 22  2  0
 22  5  1  0
 15 10  1  0
 19 13  1  0
M  END
>  <tags>  (86) 
openbind_xx01zvns2b_c1_knitwork_impure,fragmenstein_placed,openbind_xx01zvns2b_c1_scaffolds_chemok_bbok,BulkDock Fragalysis export,openbind_xx01zvns2b_c1_scaffolds

>  <placement_batch>  (86) 
openbind_xx01zvns2b_c1_knitwork_impure

>  <inspiration_score>  (86) 
None

>  <name>  (86) 
P56946

>  <HIPPO Pose ID>  (86) 
56946

>  <ref_pdb>  (86) 
Z0472a

>  <inchikey>  (86) 
ISPFDKUEBQLKHU-UHFFFAOYSA-N

>  <alias>  (86) 
None

>  <ref_mols>  (86) 
Z3527a,Z4008a,Z0472a,Z3880a,Z3729a

>  <subsites>  (86) 
1 - Z4590/B/203/1

>  <distance_score>  (86) 
0.927191

>  <HIPPO Compound ID>  (86) 
62561

>  <smiles>  (86) 
CCCNc1cc(NCc2ccc3c(c2)CCNC3)ncn1

>  <energy_score>  (86) 
-43.737705

$$$$
P56994
     RDKit          3D

 14 14  0  0  0  0  0  0  0  0999 V2000
   -8.0722    4.4811  -14.2028 C   0  0  0  0  0  0  0  0  0  0  0  0
   -8.1702    5.0340  -15.5052 O   0  0  0  0  0  0  0  0  0  0  0  0
   -7.0186    4.7401  -16.3008 C   0  0  0  0  0  0  0  0  0  0  0  0
   -7.2412    5.0916  -17.7893 C   0  0  0  0  0  0  0  0  0  0  0  0
   -8.5693    4.4979  -18.2778 C   0  0  0  0  0  0  0  0  0  0  0  0
   -9.6050    5.3511  -17.8158 O   0  0  0  0  0  0  0  0  0  0  0  0
  -10.8548    4.9930  -18.3332 C   0  0  0  0  0  0  0  0  0  0  0  0
   -6.1405    4.6051  -18.6517 N   0  0  0  0  0  0  0  0  0  0  0  0
   -4.9810    5.3959  -18.6165 C   0  0  0  0  0  0  0  0  0  0  0  0
   -3.9602    5.0892  -17.7245 C   0  0  0  0  0  0  0  0  0  0  0  0
   -2.8230    5.8746  -17.7320 C   0  0  0  0  0  0  0  0  0  0  0  0
   -2.6493    6.9388  -18.5468 N   0  0  0  0  0  0  0  0  0  0  0  0
   -3.6740    7.2400  -19.3724 C   0  0  0  0  0  0  0  0  0  0  0  0
   -4.8474    6.5115  -19.4403 C   0  0  0  0  0  0  0  0  0  0  0  0
  1  2  1  0
  2  3  1  0
  3  4  1  0
  4  5  1  0
  5  6  1  0
  6  7  1  0
  4  8  1  0
  8  9  1  0
  9 10  2  0
 10 11  1  0
 11 12  2  0
 12 13  1  0
 13 14  2  0
 14  9  1  0
M  END
>  <tags>  (87) 
openbind_xx01zvns2b_c1_knitwork_impure,fragmenstein_placed,openbind_xx01zvns2b_c1_scaffolds_chemok_bbok,BulkDock Fragalysis export,openbind_xx01zvns2b_c1_scaffolds

>  <placement_batch>  (87) 
openbind_xx01zvns2b_c1_knitwork_impure

>  <inspiration_score>  (87) 
None

>  <name>  (87) 
P56994

>  <HIPPO Pose ID>  (87) 
56994

>  <ref_pdb>  (87) 
Z0465a

>  <inchikey>  (87) 
BSTAACOISDRUSG-UHFFFAOYSA-N

>  <alias>  (87) 
None

>  <ref_mols>  (87) 
Z1046b,Z0465a

>  <subsites>  (87) 
1 - Z4590/B/203/1

>  <distance_score>  (87) 
0.869688

>  <HIPPO Compound ID>  (87) 
63027

>  <smiles>  (87) 
COCC(COC)Nc1ccncc1

>  <energy_score>  (87) 
-13.860929

$$$$
P57148
     RDKit          3D

 15 15  0  0  0  0  0  0  0  0999 V2000
   -5.4553    5.0989  -20.0168 C   0  0  0  0  0  0  0  0  0  0  0  0
   -5.0141    4.9688  -18.5625 C   0  0  0  0  0  0  0  0  0  0  0  0
   -3.6774    5.6705  -18.3614 C   0  0  0  0  0  0  0  0  0  0  0  0
   -6.1545    5.3743  -17.6017 C   0  0  0  0  0  0  0  0  0  0  0  0
   -5.8054    5.2849  -16.0958 C   0  0  1  0  0  0  0  0  0  0  0  0
   -5.1539    6.5760  -15.5833 C   0  0  0  0  0  0  0  0  0  0  0  0
   -7.0198    4.9624  -15.3327 N   0  0  0  0  0  0  0  0  0  0  0  0
   -6.8270    4.9195  -13.8779 C   0  0  0  0  0  0  0  0  0  0  0  0
   -8.0309    4.2714  -13.1884 C   0  0  0  0  0  0  0  0  0  0  0  0
   -8.0069    4.3446  -11.6814 C   0  0  0  0  0  0  0  0  0  0  0  0
   -8.0800    5.5683  -11.0133 C   0  0  0  0  0  0  0  0  0  0  0  0
   -8.1078    5.5704   -9.6260 C   0  0  0  0  0  0  0  0  0  0  0  0
   -8.0716    4.4569   -8.8656 N   0  0  0  0  0  0  0  0  0  0  0  0
   -8.0010    3.2802   -9.5292 C   0  0  0  0  0  0  0  0  0  0  0  0
   -7.9682    3.1766  -10.9130 C   0  0  0  0  0  0  0  0  0  0  0  0
  1  2  1  0
  2  3  1  0
  2  4  1  0
  4  5  1  0
  5  6  1  1
  5  7  1  0
  7  8  1  0
  8  9  1  0
  9 10  1  0
 10 11  2  0
 11 12  1  0
 12 13  2  0
 13 14  1  0
 14 15  2  0
 15 10  1  0
M  END
>  <tags>  (88) 
openbind_xx01zvns2b_c1_knitwork_impure,fragmenstein_placed,openbind_xx01zvns2b_c1_scaffolds_chemok_bbok,BulkDock Fragalysis export,openbind_xx01zvns2b_c1_scaffolds

>  <placement_batch>  (88) 
openbind_xx01zvns2b_c1_knitwork_impure

>  <inspiration_score>  (88) 
None

>  <name>  (88) 
P57148

>  <HIPPO Pose ID>  (88) 
57148

>  <ref_pdb>  (88) 
Z1274a

>  <inchikey>  (88) 
VRADJHFOQVKIBY-UHFFFAOYSA-N

>  <alias>  (88) 
None

>  <ref_mols>  (88) 
Z0472a,Z1274a

>  <subsites>  (88) 
1 - Z4590/B/203/1

>  <distance_score>  (88) 
0.854924

>  <HIPPO Compound ID>  (88) 
66105

>  <smiles>  (88) 
CC(C)C[C@@H](C)NCCc1ccncc1

>  <energy_score>  (88) 
-37.234069

$$$$
P57217
     RDKit          3D

 20 22  0  0  0  0  0  0  0  0999 V2000
   -9.2042    4.2741  -18.7997 C   0  0  0  0  0  0  0  0  0  0  0  0
   -8.3697    4.5516  -17.6242 C   0  0  0  0  0  0  0  0  0  0  0  0
   -7.0949    5.0681  -17.5987 C   0  0  0  0  0  0  0  0  0  0  0  0
   -6.6393    5.1588  -16.3208 O   0  0  0  0  0  0  0  0  0  0  0  0
   -7.6232    4.6579  -15.5144 C   0  0  0  0  0  0  0  0  0  0  0  0
   -7.3949    4.6208  -14.0523 C   0  0  0  0  0  0  0  0  0  0  0  0
   -6.1743    3.9459  -13.7263 N   0  0  0  0  0  0  0  0  0  0  0  0
   -5.9208    2.4795  -13.2786 C   0  0  0  0  0  0  0  0  0  0  0  0
   -6.6596    1.5785  -13.1822 O   0  0  0  0  0  0  0  0  0  0  0  0
   -4.4379    2.3719  -12.9293 C   0  0  0  0  0  0  0  0  0  0  0  0
   -4.0999    3.2516  -11.7778 C   0  0  0  0  0  0  0  0  0  0  0  0
   -4.4772    3.1310  -10.4554 C   0  0  0  0  0  0  0  0  0  0  0  0
   -3.9760    4.2369   -9.8227 N   0  0  0  0  0  0  0  0  0  0  0  0
   -4.0964    4.6323   -8.4934 C   0  0  0  0  0  0  0  0  0  0  0  0
   -3.5085    5.7725   -8.0928 C   0  0  0  0  0  0  0  0  0  0  0  0
   -2.7603    6.5574   -9.0643 C   0  0  0  0  0  0  0  0  0  0  0  0
   -2.6569    6.1726  -10.3520 C   0  0  0  0  0  0  0  0  0  0  0  0
   -3.2863    4.9700  -10.7835 C   0  0  0  0  0  0  0  0  0  0  0  0
   -3.3588    4.4007  -11.9693 N   0  0  0  0  0  0  0  0  0  0  0  0
   -8.7159    4.3119  -16.2753 C   0  0  0  0  0  0  0  0  0  0  0  0
  1  2  1  0
  2  3  2  0
  3  4  1  0
  4  5  1  0
  5  6  1  0
  6  7  1  0
  7  8  1  0
  8  9  2  0
  8 10  1  0
 10 11  1  0
 11 12  2  0
 12 13  1  0
 13 14  1  0
 14 15  2  0
 15 16  1  0
 16 17  2  0
 17 18  1  0
 18 19  2  0
  5 20  2  0
 20  2  1  0
 19 11  1  0
 18 13  1  0
M  END
>  <tags>  (89) 
openbind_xx01zvns2b_c1_knitwork_impure,BulkDock Fragalysis export,fragmenstein_placed,openbind_xx01zvns2b_c1_scaffolds

>  <placement_batch>  (89) 
openbind_xx01zvns2b_c1_knitwork_impure

>  <inspiration_score>  (89) 
None

>  <name>  (89) 
P57217

>  <HIPPO Pose ID>  (89) 
57217

>  <ref_pdb>  (89) 
Z0719a

>  <inchikey>  (89) 
JUMOLFANWQYULP-UHFFFAOYSA-N

>  <alias>  (89) 
None

>  <ref_mols>  (89) 
Z0490a,Z0719a

>  <subsites>  (89) 
1 - Z4590/B/203/1

>  <distance_score>  (89) 
0.891283

>  <HIPPO Compound ID>  (89) 
17707

>  <smiles>  (89) 
Cc1coc(CNC(=O)Cc2cn3ccccc3n2)c1

>  <energy_score>  (89) 
-16.776462

$$$$
P57222
     RDKit          3D

 23 25  0  0  0  0  0  0  0  0999 V2000
   -5.6341    2.2726  -13.5881 O   0  0  0  0  0  0  0  0  0  0  0  0
   -5.5181    3.4296  -13.4802 C   0  0  0  0  0  0  0  0  0  0  0  0
   -4.2877    4.1183  -12.8752 C   0  0  0  0  0  0  0  0  0  0  0  0
   -3.1069    3.2262  -12.6979 C   0  0  0  0  0  0  0  0  0  0  0  0
   -3.0279    1.9712  -12.1280 C   0  0  0  0  0  0  0  0  0  0  0  0
   -1.7123    1.6048  -12.2003 N   0  0  0  0  0  0  0  0  0  0  0  0
   -1.0948    0.4266  -11.7955 C   0  0  0  0  0  0  0  0  0  0  0  0
    0.2299    0.2854  -11.9700 C   0  0  0  0  0  0  0  0  0  0  0  0
    0.9782    1.3736  -12.5807 C   0  0  0  0  0  0  0  0  0  0  0  0
    0.3728    2.5152  -12.9648 C   0  0  0  0  0  0  0  0  0  0  0  0
   -1.0324    2.6667  -12.7851 C   0  0  0  0  0  0  0  0  0  0  0  0
   -1.8503    3.6542  -13.0865 N   0  0  0  0  0  0  0  0  0  0  0  0
   -6.4887    4.5814  -13.8754 N   0  0  0  0  0  0  0  0  0  0  0  0
   -7.8348    4.5353  -14.3948 C   0  0  0  0  0  0  0  0  0  0  0  0
   -7.9008    4.2435  -15.9031 C   0  0  2  0  0  0  0  0  0  0  0  0
   -7.4249    5.4480  -16.7284 C   0  0  0  0  0  0  0  0  0  0  0  0
   -7.6446    5.3506  -18.1804 N   0  0  0  0  0  0  0  0  0  0  0  0
   -6.5268    4.7637  -18.9387 C   0  0  0  0  0  0  0  0  0  0  0  0
   -5.2352    5.5819  -18.9278 C   0  0  0  0  0  0  0  0  0  0  0  0
   -4.5006    5.3949  -17.7191 O   0  0  0  0  0  0  0  0  0  0  0  0
   -8.8716    4.5795  -18.4938 C   0  0  0  0  0  0  0  0  0  0  0  0
   -9.8315    4.4651  -17.3250 C   0  0  0  0  0  0  0  0  0  0  0  0
   -9.2313    3.8017  -16.2174 O   0  0  0  0  0  0  0  0  0  0  0  0
  1  2  2  0
  2  3  1  0
  3  4  1  0
  4  5  2  0
  5  6  1  0
  6  7  1  0
  7  8  2  0
  8  9  1  0
  9 10  2  0
 10 11  1  0
 11 12  2  0
  2 13  1  0
 13 14  1  0
 15 14  1  1
 15 16  1  0
 16 17  1  0
 17 18  1  0
 18 19  1  0
 19 20  1  0
 17 21  1  0
 21 22  1  0
 22 23  1  0
 12  4  1  0
 23 15  1  0
 11  6  1  0
M  END
>  <tags>  (90) 
openbind_xx01zvns2b_c1_knitwork_impure,BulkDock Fragalysis export,fragmenstein_placed,openbind_xx01zvns2b_c1_scaffolds

>  <placement_batch>  (90) 
openbind_xx01zvns2b_c1_knitwork_impure

>  <inspiration_score>  (90) 
None

>  <name>  (90) 
P57222

>  <HIPPO Pose ID>  (90) 
57222

>  <ref_pdb>  (90) 
Z0719a

>  <inchikey>  (90) 
OFTPRFKIFYMELS-UHFFFAOYSA-N

>  <alias>  (90) 
None

>  <ref_mols>  (90) 
Z0490a,Z0719a

>  <subsites>  (90) 
1 - Z4590/B/203/1

>  <distance_score>  (90) 
0.951514

>  <HIPPO Compound ID>  (90) 
17711

>  <smiles>  (90) 
O=C(Cc1cn2ccccc2n1)NC[C@@H]1CN(CCO)CCO1

>  <energy_score>  (90) 
-57.677776

$$$$
P57300
     RDKit          3D

 23 25  0  0  0  0  0  0  0  0999 V2000
   -7.3325    6.7356  -13.9205 O   0  0  0  0  0  0  0  0  0  0  0  0
   -7.4739    5.5733  -14.0414 C   0  0  0  0  0  0  0  0  0  0  0  0
   -7.8699    4.4774  -12.9792 N   0  0  0  0  0  0  0  0  0  0  0  0
   -8.0662    4.5812  -11.6045 C   0  0  0  0  0  0  0  0  0  0  0  0
   -7.8682    5.8285  -10.9900 C   0  0  0  0  0  0  0  0  0  0  0  0
   -7.9777    5.9711   -9.6151 C   0  0  0  0  0  0  0  0  0  0  0  0
   -8.3050    4.8533   -8.8797 C   0  0  0  0  0  0  0  0  0  0  0  0
   -8.5479    3.6143   -9.4686 C   0  0  0  0  0  0  0  0  0  0  0  0
   -8.4177    3.4546  -10.8423 C   0  0  0  0  0  0  0  0  0  0  0  0
   -8.9697    2.6515   -8.3921 C   0  0  0  0  0  0  0  0  0  0  0  0
   -8.6401    3.3508   -7.1208 N   0  0  0  0  0  0  0  0  0  0  0  0
   -9.5199    3.0616   -6.0036 C   0  0  0  0  0  0  0  0  0  0  0  0
   -8.9131    3.4725   -4.6480 C   0  0  0  0  0  0  0  0  0  0  0  0
   -8.8753    4.9573   -4.2904 C   0  0  0  0  0  0  0  0  0  0  0  0
   -8.3913    5.1266   -2.8527 C   0  0  0  0  0  0  0  0  0  0  0  0
   -9.2694    4.6097   -1.6880 C   0  0  0  0  0  0  0  0  0  0  0  0
   -8.8710    5.8134   -0.9248 N   0  0  0  0  0  0  0  0  0  0  0  0
   -8.6255    6.5117   -2.2072 C   0  0  0  0  0  0  0  0  0  0  0  0
   -8.4637    4.7674   -7.4079 C   0  0  0  0  0  0  0  0  0  0  0  0
   -7.1707    4.8352  -15.3540 C   0  0  0  0  0  0  0  0  0  0  0  0
   -7.0244    5.6705  -16.4173 F   0  0  0  0  0  0  0  0  0  0  0  0
   -8.1465    3.9492  -15.6845 F   0  0  0  0  0  0  0  0  0  0  0  0
   -6.0049    4.1540  -15.2575 F   0  0  0  0  0  0  0  0  0  0  0  0
  1  2  2  0
  2  3  1  0
  3  4  1  0
  4  5  2  0
  5  6  1  0
  6  7  2  0
  7  8  1  0
  8  9  2  0
  8 10  1  0
 10 11  1  0
 11 12  1  0
 12 13  1  0
 13 14  1  0
 14 15  1  0
 15 16  1  0
 16 17  1  0
 17 18  1  0
 11 19  1  0
  2 20  1  0
 20 21  1  0
 20 22  1  0
 20 23  1  0
  9  4  1  0
 18 15  1  0
 19  7  1  0
M  END
>  <tags>  (91) 
openbind_xx01zvns2b_c1_knitwork_impure,fragmenstein_placed,openbind_xx01zvns2b_c1_scaffolds_chemok_bbok,BulkDock Fragalysis export,openbind_xx01zvns2b_c1_scaffolds

>  <placement_batch>  (91) 
openbind_xx01zvns2b_c1_knitwork_impure

>  <inspiration_score>  (91) 
None

>  <name>  (91) 
P57300

>  <HIPPO Pose ID>  (91) 
57300

>  <ref_pdb>  (91) 
Z3880a

>  <inchikey>  (91) 
FLKNWAFFRSIEQV-UHFFFAOYSA-N

>  <alias>  (91) 
None

>  <ref_mols>  (91) 
Z3880a,Z0990a

>  <subsites>  (91) 
1 - Z4590/B/203/1

>  <distance_score>  (91) 
0.893193

>  <HIPPO Compound ID>  (91) 
60166

>  <smiles>  (91) 
O=C(Nc1ccc2c(c1)CN(CCCC1CNC1)C2)C(F)(F)F

>  <energy_score>  (91) 
-36.28457

$$$$
P57358
     RDKit          3D

 20 22  0  0  0  0  0  0  0  0999 V2000
   -8.1043    3.0457  -11.8097 O   0  0  0  0  0  0  0  0  0  0  0  0
   -7.7597    4.1189  -11.5271 C   0  0  0  0  0  0  0  0  0  0  0  0
   -6.8822    5.1181  -12.2974 N   0  0  0  0  0  0  0  0  0  0  0  0
   -6.1635    4.9706  -13.5392 C   0  0  0  0  0  0  0  0  0  0  0  0
   -6.9396    5.0095  -14.8343 C   0  0  0  0  0  0  0  0  0  0  0  0
   -8.1800    4.4175  -14.9765 C   0  0  0  0  0  0  0  0  0  0  0  0
   -8.7064    4.3887  -16.2493 C   0  0  0  0  0  0  0  0  0  0  0  0
   -8.0718    4.8729  -17.3301 N   0  0  0  0  0  0  0  0  0  0  0  0
   -6.8723    5.4115  -17.0977 C   0  0  0  0  0  0  0  0  0  0  0  0
   -6.2755    5.5297  -15.9005 N   0  0  0  0  0  0  0  0  0  0  0  0
   -8.0915    4.6982  -10.1508 C   0  0  0  0  0  0  0  0  0  0  0  0
   -7.8861    6.0494  -10.0487 N   0  0  0  0  0  0  0  0  0  0  0  0
   -8.0844    6.6092   -8.8366 C   0  0  0  0  0  0  0  0  0  0  0  0
   -8.4378    5.9050   -7.7031 C   0  0  0  0  0  0  0  0  0  0  0  0
   -8.6420    4.5304   -7.8146 C   0  0  0  0  0  0  0  0  0  0  0  0
   -8.4584    3.8957   -9.0608 C   0  0  0  0  0  0  0  0  0  0  0  0
   -8.6734    2.4076   -9.1950 C   0  0  0  0  0  0  0  0  0  0  0  0
   -8.7667    1.6859   -7.9187 N   0  0  0  0  0  0  0  0  0  0  0  0
   -9.6066    2.3715   -6.9588 C   0  0  0  0  0  0  0  0  0  0  0  0
   -9.0126    3.7271   -6.5918 C   0  0  0  0  0  0  0  0  0  0  0  0
  1  2  2  0
  2  3  1  0
  3  4  1  0
  4  5  1  0
  5  6  2  0
  6  7  1  0
  7  8  2  0
  8  9  1  0
  9 10  2  0
  2 11  1  0
 11 12  2  0
 12 13  1  0
 13 14  2  0
 14 15  1  0
 15 16  2  0
 16 17  1  0
 17 18  1  0
 18 19  1  0
 19 20  1  0
 10  5  1  0
 16 11  1  0
 20 15  1  0
M  END
>  <tags>  (92) 
openbind_xx01zvns2b_c1_knitwork_impure,fragmenstein_placed,openbind_xx01zvns2b_c1_scaffolds_chemok_bbok,BulkDock Fragalysis export,openbind_xx01zvns2b_c1_scaffolds

>  <placement_batch>  (92) 
openbind_xx01zvns2b_c1_knitwork_impure

>  <inspiration_score>  (92) 
None

>  <name>  (92) 
P57358

>  <HIPPO Pose ID>  (92) 
57358

>  <ref_pdb>  (92) 
Z0945a

>  <inchikey>  (92) 
FZPVTGVORHPRMV-UHFFFAOYSA-N

>  <alias>  (92) 
None

>  <ref_mols>  (92) 
Z0945a,Z0969a

>  <subsites>  (92) 
1 - Z4590/B/203/1

>  <distance_score>  (92) 
0.745094

>  <HIPPO Compound ID>  (92) 
66477

>  <smiles>  (92) 
O=C(NCc1ccncn1)c1nccc2c1CNCC2

>  <energy_score>  (92) 
-6.422906

$$$$
P57374
     RDKit          3D

 23 25  0  0  0  0  0  0  0  0999 V2000
   -8.1962    3.5740  -12.4151 Cl  0  0  0  0  0  0  0  0  0  0  0  0
   -7.5565    5.0970  -13.0716 C   0  0  0  0  0  0  0  0  0  0  0  0
   -6.3061    5.6957  -11.9309 Cl  0  0  0  0  0  0  0  0  0  0  0  0
   -8.8409    6.3706  -13.0766 Cl  0  0  0  0  0  0  0  0  0  0  0  0
   -7.0408    4.9301  -14.5044 C   0  0  0  0  0  0  0  0  0  0  0  0
   -5.7410    5.1713  -14.7885 N   0  0  0  0  0  0  0  0  0  0  0  0
   -5.3616    5.1197  -16.0833 C   0  0  0  0  0  0  0  0  0  0  0  0
   -3.9822    5.3923  -16.2950 N   0  0  0  0  0  0  0  0  0  0  0  0
   -3.3455    4.6480  -17.2475 N   0  0  0  0  0  0  0  0  0  0  0  0
   -2.2730    5.1282  -17.8102 C   0  0  0  0  0  0  0  0  0  0  0  0
   -1.5040    6.3535  -17.5207 C   0  0  0  0  0  0  0  0  0  0  0  0
   -1.3656    6.8692  -16.2404 C   0  0  0  0  0  0  0  0  0  0  0  0
   -0.5838    8.0106  -16.0727 C   0  0  0  0  0  0  0  0  0  0  0  0
    0.0377    8.5839  -17.1766 C   0  0  0  0  0  0  0  0  0  0  0  0
   -0.1394    7.9854  -18.4127 C   0  0  0  0  0  0  0  0  0  0  0  0
   -0.8888    6.8805  -18.6101 N   0  0  0  0  0  0  0  0  0  0  0  0
   -6.2659    4.8643  -17.1261 C   0  0  0  0  0  0  0  0  0  0  0  0
   -5.9650    4.8523  -18.5072 C   0  0  0  0  0  0  0  0  0  0  0  0
   -6.9225    4.4893  -19.4402 C   0  0  0  0  0  0  0  0  0  0  0  0
   -8.2132    4.2040  -19.0261 C   0  0  0  0  0  0  0  0  0  0  0  0
   -8.5283    4.2619  -17.6718 C   0  0  0  0  0  0  0  0  0  0  0  0
   -7.5733    4.5852  -16.7201 C   0  0  0  0  0  0  0  0  0  0  0  0
   -7.9591    4.6380  -15.4474 N   0  0  0  0  0  0  0  0  0  0  0  0
  1  2  1  0
  2  3  1  0
  2  4  1  0
  2  5  1  0
  5  6  2  0
  6  7  1  0
  7  8  1  0
  8  9  1  0
  9 10  2  3
 10 11  1  0
 11 12  2  0
 12 13  1  0
 13 14  2  0
 14 15  1  0
 15 16  2  0
  7 17  2  0
 17 18  1  0
 18 19  2  0
 19 20  1  0
 20 21  2  0
 21 22  1  0
 22 23  2  0
 23  5  1  0
 16 11  1  0
 22 17  1  0
M  END
>  <tags>  (93) 
openbind_xx01zvns2b_c1_knitwork_impure,BulkDock Fragalysis export,fragmenstein_placed,openbind_xx01zvns2b_c1_scaffolds

>  <placement_batch>  (93) 
openbind_xx01zvns2b_c1_knitwork_impure

>  <inspiration_score>  (93) 
None

>  <name>  (93) 
P57374

>  <HIPPO Pose ID>  (93) 
57374

>  <ref_pdb>  (93) 
Z1719a

>  <inchikey>  (93) 
YOXAPKMVWGASBI-UHFFFAOYSA-N

>  <alias>  (93) 
None

>  <ref_mols>  (93) 
Z0788b,Z0673a,Z1719a

>  <subsites>  (93) 
1 - Z4590/B/203/1,6 - Z0788/B/302/1

>  <distance_score>  (93) 
0.707622

>  <HIPPO Compound ID>  (93) 
66542

>  <smiles>  (93) 
ClC(Cl)(Cl)c1nc(NN=Cc2ccccn2)c2ccccc2n1

>  <energy_score>  (93) 
-18.159191

$$$$
P57375
     RDKit          3D

 23 25  0  0  0  0  0  0  0  0999 V2000
   -3.1853    6.5212  -15.4689 C   0  0  0  0  0  0  0  0  0  0  0  0
   -3.8838    5.8361  -16.5562 N   0  0  0  0  0  0  0  0  0  0  0  0
   -3.1083    4.7132  -17.0830 C   0  0  0  0  0  0  0  0  0  0  0  0
   -5.2043    5.4302  -16.1815 C   0  0  0  0  0  0  0  0  0  0  0  0
   -5.5425    5.3912  -14.8735 N   0  0  0  0  0  0  0  0  0  0  0  0
   -6.7689    4.9470  -14.5329 C   0  0  0  0  0  0  0  0  0  0  0  0
   -7.0910    4.8864  -13.1601 N   0  0  0  0  0  0  0  0  0  0  0  0
   -7.3188    6.2644  -12.7237 C   0  0  0  0  0  0  0  0  0  0  0  0
   -8.1965    3.9531  -12.8477 C   0  0  0  0  0  0  0  0  0  0  0  0
   -8.0296    3.2033  -11.5169 C   0  0  0  0  0  0  0  0  0  0  0  0
   -7.7039    4.0299  -10.3001 C   0  0  0  0  0  0  0  0  0  0  0  0
   -6.3977    4.4753  -10.1034 C   0  0  0  0  0  0  0  0  0  0  0  0
   -6.0791    5.1860   -8.9507 C   0  0  0  0  0  0  0  0  0  0  0  0
   -7.0695    5.4233   -8.0117 C   0  0  0  0  0  0  0  0  0  0  0  0
   -8.3400    4.9453   -8.2775 C   0  0  0  0  0  0  0  0  0  0  0  0
   -8.6848    4.2770   -9.4011 N   0  0  0  0  0  0  0  0  0  0  0  0
   -7.6983    4.6067  -15.4304 N   0  0  0  0  0  0  0  0  0  0  0  0
   -7.3758    4.6401  -16.7194 C   0  0  0  0  0  0  0  0  0  0  0  0
   -8.3287    4.2206  -17.6353 C   0  0  0  0  0  0  0  0  0  0  0  0
   -8.0567    4.1852  -18.9994 C   0  0  0  0  0  0  0  0  0  0  0  0
   -6.8212    4.6115  -19.4598 C   0  0  0  0  0  0  0  0  0  0  0  0
   -5.8874    5.1106  -18.5672 C   0  0  0  0  0  0  0  0  0  0  0  0
   -6.1290    5.0724  -17.1770 C   0  0  0  0  0  0  0  0  0  0  0  0
  1  2  1  0
  2  3  1  0
  2  4  1  0
  4  5  2  0
  5  6  1  0
  6  7  1  0
  7  8  1  0
  7  9  1  0
  9 10  1  0
 10 11  1  0
 11 12  2  0
 12 13  1  0
 13 14  2  0
 14 15  1  0
 15 16  2  0
  6 17  2  0
 17 18  1  0
 18 19  2  0
 19 20  1  0
 20 21  2  0
 21 22  1  0
 22 23  2  0
 23  4  1  0
 16 11  1  0
 23 18  1  0
M  END
>  <tags>  (94) 
openbind_xx01zvns2b_c1_knitwork_impure,fragmenstein_placed,openbind_xx01zvns2b_c1_scaffolds_chemok_bbok,BulkDock Fragalysis export,openbind_xx01zvns2b_c1_scaffolds

>  <placement_batch>  (94) 
openbind_xx01zvns2b_c1_knitwork_impure

>  <inspiration_score>  (94) 
None

>  <name>  (94) 
P57375

>  <HIPPO Pose ID>  (94) 
57375

>  <ref_pdb>  (94) 
Z1719a

>  <inchikey>  (94) 
NRPKHUBSAHGFLS-UHFFFAOYSA-N

>  <alias>  (94) 
None

>  <ref_mols>  (94) 
Z0788b,Z0673a,Z1719a

>  <subsites>  (94) 
1 - Z4590/B/203/1,6 - Z0788/B/302/1

>  <distance_score>  (94) 
0.952268

>  <HIPPO Compound ID>  (94) 
66546

>  <smiles>  (94) 
CN(C)c1nc(N(C)CCc2ccccn2)nc2ccccc12

>  <energy_score>  (94) 
-21.398804

$$$$
P57378
     RDKit          3D

 22 25  0  0  0  0  0  0  0  0999 V2000
   -8.1622    4.0731  -18.9826 C   0  0  0  0  0  0  0  0  0  0  0  0
   -6.9498    4.5073  -19.4802 C   0  0  0  0  0  0  0  0  0  0  0  0
   -6.0122    5.0695  -18.6265 C   0  0  0  0  0  0  0  0  0  0  0  0
   -6.2021    5.0903  -17.2241 C   0  0  0  0  0  0  0  0  0  0  0  0
   -5.2902    5.5540  -16.2410 C   0  0  0  0  0  0  0  0  0  0  0  0
   -4.0399    6.0954  -16.5731 N   0  0  0  0  0  0  0  0  0  0  0  0
   -3.2895    6.7427  -15.4894 C   0  0  0  0  0  0  0  0  0  0  0  0
   -2.1288    7.5624  -16.0910 C   0  0  0  0  0  0  0  0  0  0  0  0
   -1.2564    6.8538  -16.9773 O   0  0  0  0  0  0  0  0  0  0  0  0
   -1.7049    5.5206  -17.2210 C   0  0  0  0  0  0  0  0  0  0  0  0
   -3.1896    5.4500  -17.5926 C   0  0  0  0  0  0  0  0  0  0  0  0
   -5.6272    5.5316  -14.9268 N   0  0  0  0  0  0  0  0  0  0  0  0
   -6.8259    5.0112  -14.5915 C   0  0  0  0  0  0  0  0  0  0  0  0
   -7.1961    4.8958  -13.1738 C   0  0  0  0  0  0  0  0  0  0  0  0
   -7.9184    3.7844  -12.7070 C   0  0  0  0  0  0  0  0  0  0  0  0
   -8.2945    3.7191  -11.3747 C   0  0  0  0  0  0  0  0  0  0  0  0
   -8.0054    4.6836  -10.4757 N   0  0  0  0  0  0  0  0  0  0  0  0
   -7.3097    5.7440  -10.9336 C   0  0  0  0  0  0  0  0  0  0  0  0
   -6.8834    5.8909  -12.2454 C   0  0  0  0  0  0  0  0  0  0  0  0
   -7.7481    4.5890  -15.4581 N   0  0  0  0  0  0  0  0  0  0  0  0
   -7.4309    4.6140  -16.7422 C   0  0  0  0  0  0  0  0  0  0  0  0
   -8.3956    4.1423  -17.6171 C   0  0  0  0  0  0  0  0  0  0  0  0
  1  2  2  0
  2  3  1  0
  3  4  2  0
  4  5  1  0
  5  6  1  0
  6  7  1  0
  7  8  1  0
  8  9  1  0
  9 10  1  0
 10 11  1  0
  5 12  2  0
 12 13  1  0
 13 14  1  0
 14 15  2  0
 15 16  1  0
 16 17  2  0
 17 18  1  0
 18 19  2  0
 13 20  2  0
 20 21  1  0
 21 22  2  0
 22  1  1  0
 21  4  1  0
 11  6  1  0
 19 14  1  0
M  END
>  <tags>  (95) 
openbind_xx01zvns2b_c1_knitwork_impure,BulkDock Fragalysis export,fragmenstein_placed,openbind_xx01zvns2b_c1_scaffolds

>  <placement_batch>  (95) 
openbind_xx01zvns2b_c1_knitwork_impure

>  <inspiration_score>  (95) 
None

>  <name>  (95) 
P57378

>  <HIPPO Pose ID>  (95) 
57378

>  <ref_pdb>  (95) 
Z1719a

>  <inchikey>  (95) 
OMIPCJKDKQMRLY-UHFFFAOYSA-N

>  <alias>  (95) 
None

>  <ref_mols>  (95) 
Z0788b,Z0673a,Z1719a

>  <subsites>  (95) 
1 - Z4590/B/203/1,6 - Z0788/B/302/1

>  <distance_score>  (95) 
0.880874

>  <HIPPO Compound ID>  (95) 
10883

>  <smiles>  (95) 
c1ccc2c(N3CCOCC3)nc(-c3ccncc3)nc2c1

>  <energy_score>  (95) 
-25.778536

$$$$
P57379
     RDKit          3D

 22 25  0  0  0  0  0  0  0  0999 V2000
   -8.1645    4.5374  -10.6105 C   0  0  0  0  0  0  0  0  0  0  0  0
   -8.3116    3.4749  -11.4882 C   0  0  0  0  0  0  0  0  0  0  0  0
   -7.8660    3.6169  -12.7989 C   0  0  0  0  0  0  0  0  0  0  0  0
   -7.2761    4.8182  -13.2073 C   0  0  0  0  0  0  0  0  0  0  0  0
   -6.8708    4.9977  -14.6171 C   0  0  0  0  0  0  0  0  0  0  0  0
   -5.5748    5.2446  -14.9128 N   0  0  0  0  0  0  0  0  0  0  0  0
   -5.2182    5.2284  -16.2153 C   0  0  0  0  0  0  0  0  0  0  0  0
   -3.8772    5.4475  -16.5409 N   0  0  0  0  0  0  0  0  0  0  0  0
   -2.8701    5.2380  -15.4915 C   0  0  0  0  0  0  0  0  0  0  0  0
   -1.5271    5.9148  -15.8504 C   0  0  0  0  0  0  0  0  0  0  0  0
   -1.1409    5.7718  -17.2199 O   0  0  0  0  0  0  0  0  0  0  0  0
   -2.1874    6.1034  -18.1471 C   0  0  0  0  0  0  0  0  0  0  0  0
   -3.5244    6.4995  -17.4932 C   0  0  0  0  0  0  0  0  0  0  0  0
   -6.1602    4.9099  -17.2198 C   0  0  0  0  0  0  0  0  0  0  0  0
   -5.8681    4.6990  -18.5880 C   0  0  0  0  0  0  0  0  0  0  0  0
   -6.8634    4.3689  -19.4969 C   0  0  0  0  0  0  0  0  0  0  0  0
   -8.1700    4.2260  -19.0626 C   0  0  0  0  0  0  0  0  0  0  0  0
   -8.4621    4.3829  -17.7128 C   0  0  0  0  0  0  0  0  0  0  0  0
   -7.4785    4.7109  -16.7924 C   0  0  0  0  0  0  0  0  0  0  0  0
   -7.8425    4.7858  -15.5204 N   0  0  0  0  0  0  0  0  0  0  0  0
   -7.1226    5.8665  -12.3490 N   0  0  0  0  0  0  0  0  0  0  0  0
   -7.5706    5.6969  -11.0827 C   0  0  0  0  0  0  0  0  0  0  0  0
  1  2  2  0
  2  3  1  0
  3  4  2  0
  4  5  1  0
  5  6  2  0
  6  7  1  0
  7  8  1  0
  8  9  1  0
  9 10  1  0
 10 11  1  0
 11 12  1  0
 12 13  1  0
  7 14  2  0
 14 15  1  0
 15 16  2  0
 16 17  1  0
 17 18  2  0
 18 19  1  0
 19 20  2  0
  4 21  1  0
 21 22  2  0
 22  1  1  0
 20  5  1  0
 13  8  1  0
 19 14  1  0
M  END
>  <tags>  (96) 
openbind_xx01zvns2b_c1_knitwork_impure,fragmenstein_placed,openbind_xx01zvns2b_c1_scaffolds_chemok_bbok,BulkDock Fragalysis export,openbind_xx01zvns2b_c1_scaffolds

>  <placement_batch>  (96) 
openbind_xx01zvns2b_c1_knitwork_impure

>  <inspiration_score>  (96) 
None

>  <name>  (96) 
P57379

>  <HIPPO Pose ID>  (96) 
57379

>  <ref_pdb>  (96) 
Z1719a

>  <inchikey>  (96) 
GGQRGPOHBREDTD-UHFFFAOYSA-N

>  <alias>  (96) 
None

>  <ref_mols>  (96) 
Z0788b,Z0673a,Z1719a

>  <subsites>  (96) 
1 - Z4590/B/203/1,6 - Z0788/B/302/1

>  <distance_score>  (96) 
0.73245

>  <HIPPO Compound ID>  (96) 
66549

>  <smiles>  (96) 
c1ccc(-c2nc(N3CCOCC3)c3ccccc3n2)nc1

>  <energy_score>  (96) 
-21.854995

$$$$
P57380
     RDKit          3D

 22 25  0  0  0  0  0  0  0  0999 V2000
   -8.3361    3.5505  -11.4970 C   0  0  0  0  0  0  0  0  0  0  0  0
   -8.0755    4.5959  -10.6325 C   0  0  0  0  0  0  0  0  0  0  0  0
   -7.4081    5.7176  -10.9898 N   0  0  0  0  0  0  0  0  0  0  0  0
   -6.9873    5.7916  -12.2826 C   0  0  0  0  0  0  0  0  0  0  0  0
   -7.2137    4.8173  -13.2456 C   0  0  0  0  0  0  0  0  0  0  0  0
   -6.8215    4.9790  -14.6442 C   0  0  0  0  0  0  0  0  0  0  0  0
   -5.5427    5.2758  -14.9500 N   0  0  0  0  0  0  0  0  0  0  0  0
   -5.1913    5.2503  -16.2592 C   0  0  0  0  0  0  0  0  0  0  0  0
   -3.8537    5.5231  -16.5838 N   0  0  0  0  0  0  0  0  0  0  0  0
   -2.9021    5.6246  -15.4658 C   0  0  0  0  0  0  0  0  0  0  0  0
   -1.4971    5.9209  -16.0200 C   0  0  0  0  0  0  0  0  0  0  0  0
   -1.4044    7.1812  -16.6959 O   0  0  0  0  0  0  0  0  0  0  0  0
   -2.6302    7.5567  -17.3300 C   0  0  0  0  0  0  0  0  0  0  0  0
   -3.5403    6.3908  -17.7339 C   0  0  0  0  0  0  0  0  0  0  0  0
   -6.1385    4.8962  -17.2529 C   0  0  0  0  0  0  0  0  0  0  0  0
   -5.8755    4.6772  -18.6272 C   0  0  0  0  0  0  0  0  0  0  0  0
   -6.8861    4.3410  -19.5174 C   0  0  0  0  0  0  0  0  0  0  0  0
   -8.1843    4.1993  -19.0618 C   0  0  0  0  0  0  0  0  0  0  0  0
   -8.4503    4.3558  -17.7078 C   0  0  0  0  0  0  0  0  0  0  0  0
   -7.4499    4.6863  -16.8069 C   0  0  0  0  0  0  0  0  0  0  0  0
   -7.7977    4.7582  -15.5314 N   0  0  0  0  0  0  0  0  0  0  0  0
   -7.9012    3.6719  -12.8140 C   0  0  0  0  0  0  0  0  0  0  0  0
  1  2  2  0
  2  3  1  0
  3  4  2  0
  4  5  1  0
  5  6  1  0
  6  7  2  0
  7  8  1  0
  8  9  1  0
  9 10  1  0
 10 11  1  0
 11 12  1  0
 12 13  1  0
 13 14  1  0
  8 15  2  0
 15 16  1  0
 16 17  2  0
 17 18  1  0
 18 19  2  0
 19 20  1  0
 20 21  2  0
  5 22  2  0
 22  1  1  0
 21  6  1  0
 14  9  1  0
 20 15  1  0
M  END
>  <tags>  (97) 
openbind_xx01zvns2b_c1_knitwork_impure,BulkDock Fragalysis export,fragmenstein_placed,openbind_xx01zvns2b_c1_scaffolds

>  <placement_batch>  (97) 
openbind_xx01zvns2b_c1_knitwork_impure

>  <inspiration_score>  (97) 
None

>  <name>  (97) 
P57380

>  <HIPPO Pose ID>  (97) 
57380

>  <ref_pdb>  (97) 
Z1719a

>  <inchikey>  (97) 
DHGJMRBQLPLBGN-UHFFFAOYSA-N

>  <alias>  (97) 
None

>  <ref_mols>  (97) 
Z0788b,Z0673a,Z1719a

>  <subsites>  (97) 
1 - Z4590/B/203/1,6 - Z0788/B/302/1

>  <distance_score>  (97) 
0.896066

>  <HIPPO Compound ID>  (97) 
10838

>  <smiles>  (97) 
c1cncc(-c2nc(N3CCOCC3)c3ccccc3n2)c1

>  <energy_score>  (97) 
-31.162859

$$$$
P57382
     RDKit          3D

 21 23  0  0  0  0  0  0  0  0999 V2000
   -7.6413    3.6046  -12.5421 C   0  0  0  0  0  0  0  0  0  0  0  0
   -7.5716    5.0167  -13.1010 C   0  0  0  0  0  0  0  0  0  0  0  0
   -7.1303    5.0177  -14.5389 C   0  0  0  0  0  0  0  0  0  0  0  0
   -5.8182    5.1086  -14.8003 N   0  0  0  0  0  0  0  0  0  0  0  0
   -5.4523    4.9622  -16.0903 C   0  0  0  0  0  0  0  0  0  0  0  0
   -3.6860    4.8457  -16.3064 S   0  0  0  0  0  0  0  0  0  0  0  0
   -3.3562    6.2119  -17.4598 C   0  0  0  0  0  0  0  0  0  0  0  0
   -2.1021    5.9243  -18.2829 C   0  0  0  0  0  0  0  0  0  0  0  0
   -0.7647    6.0170  -17.5912 C   0  0  0  0  0  0  0  0  0  0  0  0
   -0.5983    6.3260  -16.2433 C   0  0  0  0  0  0  0  0  0  0  0  0
    0.6910    6.3653  -15.7120 C   0  0  0  0  0  0  0  0  0  0  0  0
    1.7801    6.1026  -16.5311 C   0  0  0  0  0  0  0  0  0  0  0  0
    1.5345    5.8175  -17.8600 C   0  0  0  0  0  0  0  0  0  0  0  0
    0.2983    5.7803  -18.4007 N   0  0  0  0  0  0  0  0  0  0  0  0
   -6.3631    4.7557  -17.1355 C   0  0  0  0  0  0  0  0  0  0  0  0
   -6.0478    4.5486  -18.5018 C   0  0  0  0  0  0  0  0  0  0  0  0
   -7.0421    4.3073  -19.4358 C   0  0  0  0  0  0  0  0  0  0  0  0
   -8.3628    4.2479  -19.0264 C   0  0  0  0  0  0  0  0  0  0  0  0
   -8.6758    4.4256  -17.6814 C   0  0  0  0  0  0  0  0  0  0  0  0
   -7.6994    4.6952  -16.7339 C   0  0  0  0  0  0  0  0  0  0  0  0
   -8.0851    4.8615  -15.4675 N   0  0  0  0  0  0  0  0  0  0  0  0
  1  2  1  0
  2  3  1  0
  3  4  2  0
  4  5  1  0
  5  6  1  0
  6  7  1  0
  7  8  1  0
  8  9  1  0
  9 10  2  0
 10 11  1  0
 11 12  2  0
 12 13  1  0
 13 14  2  0
  5 15  2  0
 15 16  1  0
 16 17  2  0
 17 18  1  0
 18 19  2  0
 19 20  1  0
 20 21  2  0
 21  3  1  0
 14  9  1  0
 20 15  1  0
M  END
>  <tags>  (98) 
openbind_xx01zvns2b_c1_knitwork_impure,BulkDock Fragalysis export,fragmenstein_placed,openbind_xx01zvns2b_c1_scaffolds

>  <placement_batch>  (98) 
openbind_xx01zvns2b_c1_knitwork_impure

>  <inspiration_score>  (98) 
None

>  <name>  (98) 
P57382

>  <HIPPO Pose ID>  (98) 
57382

>  <ref_pdb>  (98) 
Z1719a

>  <inchikey>  (98) 
RWVZAZCZNGSJDG-UHFFFAOYSA-N

>  <alias>  (98) 
None

>  <ref_mols>  (98) 
Z0788b,Z0673a,Z1719a

>  <subsites>  (98) 
1 - Z4590/B/203/1,6 - Z0788/B/302/1

>  <distance_score>  (98) 
0.928395

>  <HIPPO Compound ID>  (98) 
66551

>  <smiles>  (98) 
CCc1nc(SCCc2ccccn2)c2ccccc2n1

>  <energy_score>  (98) 
-8.738827

$$$$
P57384
     RDKit          3D

 23 25  0  0  0  0  0  0  0  0999 V2000
   -6.7226    2.4015  -10.2988 C   0  0  0  0  0  0  0  0  0  0  0  0
   -7.5007    3.4327  -11.1189 C   0  0  2  0  0  0  0  0  0  0  0  0
   -7.1629    3.3125  -12.6127 C   0  0  0  0  0  0  0  0  0  0  0  0
   -7.9510    4.2519  -13.4120 N   0  0  0  0  0  0  0  0  0  0  0  0
   -7.3812    4.5210  -14.6536 C   0  0  0  0  0  0  0  0  0  0  0  0
   -6.0757    4.7977  -14.8028 N   0  0  0  0  0  0  0  0  0  0  0  0
   -5.5963    4.9007  -16.0553 C   0  0  0  0  0  0  0  0  0  0  0  0
   -4.2109    5.1238  -16.1239 N   0  0  0  0  0  0  0  0  0  0  0  0
   -3.7285    6.1928  -17.0055 C   0  0  0  0  0  0  0  0  0  0  0  0
   -2.4914    5.7165  -17.7807 C   0  0  0  0  0  0  0  0  0  0  0  0
   -1.3831    5.6040  -16.8903 O   0  0  0  0  0  0  0  0  0  0  0  0
   -6.4142    4.6888  -17.1742 C   0  0  0  0  0  0  0  0  0  0  0  0
   -5.9891    4.6128  -18.5199 C   0  0  0  0  0  0  0  0  0  0  0  0
   -6.8973    4.3780  -19.5395 C   0  0  0  0  0  0  0  0  0  0  0  0
   -8.2419    4.2239  -19.2405 C   0  0  0  0  0  0  0  0  0  0  0  0
   -8.6640    4.2710  -17.9185 C   0  0  0  0  0  0  0  0  0  0  0  0
   -7.7678    4.4828  -16.8866 C   0  0  0  0  0  0  0  0  0  0  0  0
   -8.2511    4.4401  -15.6532 N   0  0  0  0  0  0  0  0  0  0  0  0
   -7.1889    4.7879  -10.6655 N   0  0  0  0  0  0  0  0  0  0  0  0
   -8.0892    5.7788  -10.4031 C   0  0  0  0  0  0  0  0  0  0  0  0
   -7.3664    6.9389  -10.2986 C   0  0  0  0  0  0  0  0  0  0  0  0
   -6.0261    6.5352  -10.4110 C   0  0  0  0  0  0  0  0  0  0  0  0
   -5.9053    5.2215  -10.6063 N   0  0  0  0  0  0  0  0  0  0  0  0
  2  1  1  1
  2  3  1  0
  3  4  1  0
  4  5  1  0
  5  6  2  0
  6  7  1  0
  7  8  1  0
  8  9  1  0
  9 10  1  0
 10 11  1  0
  7 12  2  0
 12 13  1  0
 13 14  2  0
 14 15  1  0
 15 16  2  0
 16 17  1  0
 17 18  2  0
  2 19  1  0
 19 20  1  0
 20 21  2  0
 21 22  1  0
 22 23  2  0
 18  5  1  0
 23 19  1  0
 17 12  1  0
M  END
>  <tags>  (99) 
openbind_xx01zvns2b_c1_knitwork_impure,fragmenstein_placed,openbind_xx01zvns2b_c1_scaffolds_chemok_bbok,BulkDock Fragalysis export,openbind_xx01zvns2b_c1_scaffolds

>  <placement_batch>  (99) 
openbind_xx01zvns2b_c1_knitwork_impure

>  <inspiration_score>  (99) 
None

>  <name>  (99) 
P57384

>  <HIPPO Pose ID>  (99) 
57384

>  <ref_pdb>  (99) 
Z1719a

>  <inchikey>  (99) 
KCAWPROZVNKMQA-UHFFFAOYSA-N

>  <alias>  (99) 
None

>  <ref_mols>  (99) 
Z0788b,Z0673a,Z1719a

>  <subsites>  (99) 
1 - Z4590/B/203/1,6 - Z0788/B/302/1

>  <distance_score>  (99) 
0.992572

>  <HIPPO Compound ID>  (99) 
66556

>  <smiles>  (99) 
C[C@H](CNc1nc(NCCO)c2ccccc2n1)n1cccn1

>  <energy_score>  (99) 
-45.259075

$$$$
P57385
     RDKit          3D

 23 25  0  0  0  0  0  0  0  0999 V2000
   -1.3162    5.6284  -15.9265 O   0  0  0  0  0  0  0  0  0  0  0  0
   -1.0707    5.9747  -17.2933 C   0  0  0  0  0  0  0  0  0  0  0  0
   -2.3078    5.8597  -18.1860 C   0  0  0  0  0  0  0  0  0  0  0  0
   -2.1223    6.6267  -19.2969 F   0  0  0  0  0  0  0  0  0  0  0  0
   -2.4373    4.5811  -18.6308 F   0  0  0  0  0  0  0  0  0  0  0  0
   -3.5913    6.3107  -17.4696 C   0  0  0  0  0  0  0  0  0  0  0  0
   -4.0179    5.3534  -16.4356 N   0  0  0  0  0  0  0  0  0  0  0  0
   -5.3838    5.1721  -16.2163 C   0  0  0  0  0  0  0  0  0  0  0  0
   -5.7299    5.2498  -14.9202 N   0  0  0  0  0  0  0  0  0  0  0  0
   -7.0234    5.0043  -14.6222 C   0  0  0  0  0  0  0  0  0  0  0  0
   -7.4109    4.8364  -13.2081 C   0  0  0  0  0  0  0  0  0  0  0  0
   -7.9298    3.6153  -12.7672 C   0  0  0  0  0  0  0  0  0  0  0  0
   -8.3326    3.4742  -11.4430 C   0  0  0  0  0  0  0  0  0  0  0  0
   -8.2104    4.5560  -10.5850 C   0  0  0  0  0  0  0  0  0  0  0  0
   -7.6863    5.7350  -11.0904 C   0  0  0  0  0  0  0  0  0  0  0  0
   -7.2838    5.9054  -12.3715 N   0  0  0  0  0  0  0  0  0  0  0  0
   -7.9905    4.7690  -15.5260 N   0  0  0  0  0  0  0  0  0  0  0  0
   -7.6225    4.6660  -16.7992 C   0  0  0  0  0  0  0  0  0  0  0  0
   -8.6010    4.3481  -17.7279 C   0  0  0  0  0  0  0  0  0  0  0  0
   -8.2969    4.1828  -19.0752 C   0  0  0  0  0  0  0  0  0  0  0  0
   -6.9835    4.2931  -19.4990 C   0  0  0  0  0  0  0  0  0  0  0  0
   -5.9911    4.6051  -18.5836 C   0  0  0  0  0  0  0  0  0  0  0  0
   -6.3006    4.8349  -17.2236 C   0  0  0  0  0  0  0  0  0  0  0  0
  1  2  1  0
  2  3  1  0
  3  4  1  0
  3  5  1  0
  3  6  1  0
  6  7  1  0
  7  8  1  0
  8  9  2  0
  9 10  1  0
 10 11  1  0
 11 12  2  0
 12 13  1  0
 13 14  2  0
 14 15  1  0
 15 16  2  0
 10 17  2  0
 17 18  1  0
 18 19  2  0
 19 20  1  0
 20 21  2  0
 21 22  1  0
 22 23  2  0
 23  8  1  0
 16 11  1  0
 23 18  1  0
M  END
>  <tags>  (100) 
openbind_xx01zvns2b_c1_knitwork_impure,BulkDock Fragalysis export,fragmenstein_placed,openbind_xx01zvns2b_c1_scaffolds

>  <placement_batch>  (100) 
openbind_xx01zvns2b_c1_knitwork_impure

>  <inspiration_score>  (100) 
None

>  <name>  (100) 
P57385

>  <HIPPO Pose ID>  (100) 
57385

>  <ref_pdb>  (100) 
Z1719a

>  <inchikey>  (100) 
PILNJICTLKJCBE-UHFFFAOYSA-N

>  <alias>  (100) 
None

>  <ref_mols>  (100) 
Z0788b,Z0673a,Z1719a

>  <subsites>  (100) 
1 - Z4590/B/203/1,6 - Z0788/B/302/1

>  <distance_score>  (100) 
0.665351

>  <HIPPO Compound ID>  (100) 
66558

>  <smiles>  (100) 
OCC(F)(F)CNc1nc(-c2ccccn2)nc2ccccc12

>  <energy_score>  (100) 
-12.103151

$$$$
P57395
     RDKit          3D

 24 27  0  0  0  0  0  0  0  0999 V2000
   -0.0621    7.3410  -16.4003 O   0  0  0  0  0  0  0  0  0  0  0  0
   -1.1728    6.8799  -16.6630 C   0  0  0  0  0  0  0  0  0  0  0  0
   -2.4321    7.5350  -16.1711 C   0  0  0  0  0  0  0  0  0  0  0  0
   -3.4922    6.5947  -15.6197 C   0  0  0  0  0  0  0  0  0  0  0  0
   -4.3731    6.1001  -16.6892 N   0  0  0  0  0  0  0  0  0  0  0  0
   -5.6169    5.5856  -16.2760 C   0  0  0  0  0  0  0  0  0  0  0  0
   -5.8308    5.4148  -14.9479 N   0  0  0  0  0  0  0  0  0  0  0  0
   -6.9926    4.8507  -14.5555 C   0  0  0  0  0  0  0  0  0  0  0  0
   -7.2895    4.6994  -13.1327 C   0  0  0  0  0  0  0  0  0  0  0  0
   -7.9271    3.5521  -12.6362 C   0  0  0  0  0  0  0  0  0  0  0  0
   -8.3105    3.4661  -11.3012 C   0  0  0  0  0  0  0  0  0  0  0  0
   -8.0418    4.5447  -10.4815 C   0  0  0  0  0  0  0  0  0  0  0  0
   -7.4118    5.6667  -10.8985 N   0  0  0  0  0  0  0  0  0  0  0  0
   -7.0481    5.7095  -12.2093 C   0  0  0  0  0  0  0  0  0  0  0  0
   -7.9591    4.4349  -15.3783 N   0  0  0  0  0  0  0  0  0  0  0  0
   -7.7657    4.6384  -16.6863 C   0  0  0  0  0  0  0  0  0  0  0  0
   -6.6268    5.2707  -17.1861 C   0  0  0  0  0  0  0  0  0  0  0  0
   -6.6513    5.5815  -18.6584 C   0  0  0  0  0  0  0  0  0  0  0  0
   -7.1915    4.3531  -19.3746 C   0  0  0  0  0  0  0  0  0  0  0  0
   -8.6037    4.2044  -19.0524 N   0  0  0  0  0  0  0  0  0  0  0  0
   -8.8345    4.0740  -17.6090 C   0  0  0  0  0  0  0  0  0  0  0  0
   -3.7296    5.4649  -17.8581 C   0  0  0  0  0  0  0  0  0  0  0  0
   -2.3554    4.8804  -17.5869 C   0  0  0  0  0  0  0  0  0  0  0  0
   -1.2586    5.8226  -17.5123 N   0  0  0  0  0  0  0  0  0  0  0  0
  1  2  2  0
  2  3  1  0
  3  4  1  0
  4  5  1  0
  5  6  1  0
  6  7  2  0
  7  8  1  0
  8  9  1  0
  9 10  2  0
 10 11  1  0
 11 12  2  0
 12 13  1  0
 13 14  2  0
  8 15  2  0
 15 16  1  0
 16 17  2  0
 17 18  1  0
 18 19  1  0
 19 20  1  0
 20 21  1  0
  5 22  1  0
 22 23  1  0
 23 24  1  0
 24  2  1  0
 17  6  1  0
 14  9  1  0
 21 16  1  0
M  END
>  <tags>  (101) 
openbind_xx01zvns2b_c1_knitwork_impure,fragmenstein_placed,openbind_xx01zvns2b_c1_scaffolds_chemok_bbok,BulkDock Fragalysis export,openbind_xx01zvns2b_c1_scaffolds

>  <placement_batch>  (101) 
openbind_xx01zvns2b_c1_knitwork_impure

>  <inspiration_score>  (101) 
None

>  <name>  (101) 
P57395

>  <HIPPO Pose ID>  (101) 
57395

>  <ref_pdb>  (101) 
Z1719a

>  <inchikey>  (101) 
OPXSBPGOLVVOAK-UHFFFAOYSA-N

>  <alias>  (101) 
None

>  <ref_mols>  (101) 
Z0673a,Z1719a

>  <subsites>  (101) 
1 - Z4590/B/203/1

>  <distance_score>  (101) 
0.92969

>  <HIPPO Compound ID>  (101) 
62293

>  <smiles>  (101) 
O=C1CCN(c2nc(-c3cccnc3)nc3c2CCNC3)CCN1

>  <energy_score>  (101) 
-26.131194

$$$$
P57405
     RDKit          3D

 11 12  0  0  0  0  0  0  0  0999 V2000
   -8.9871    4.6349  -17.0330 C   0  0  0  0  0  0  0  0  0  0  0  0
   -8.4924    4.8281  -18.3286 C   0  0  0  0  0  0  0  0  0  0  0  0
   -7.2149    5.2896  -18.1303 C   0  0  0  0  0  0  0  0  0  0  0  0
   -6.1619    5.7595  -19.0580 C   0  0  1  0  0  0  0  0  0  0  0  0
   -6.0233    7.2835  -18.9693 C   0  0  0  0  0  0  0  0  0  0  0  0
   -4.9380    7.7792  -19.9092 C   0  0  0  0  0  0  0  0  0  0  0  0
   -3.6343    7.0139  -19.6984 C   0  0  0  0  0  0  0  0  0  0  0  0
   -3.8187    5.5644  -19.8415 N   0  0  0  0  0  0  0  0  0  0  0  0
   -4.7999    5.0897  -18.8404 C   0  0  0  0  0  0  0  0  0  0  0  0
   -6.9622    5.3602  -16.7955 O   0  0  0  0  0  0  0  0  0  0  0  0
   -8.0892    4.9561  -16.0982 N   0  0  0  0  0  0  0  0  0  0  0  0
  1  2  1  0
  2  3  2  0
  4  3  1  1
  4  5  1  0
  5  6  1  0
  6  7  1  0
  7  8  1  0
  8  9  1  0
  3 10  1  0
 10 11  1  0
 11  1  2  0
  9  4  1  0
M  END
>  <tags>  (102) 
openbind_xx01zvns2b_c1_knitwork_impure,BulkDock Fragalysis export,fragmenstein_placed,openbind_xx01zvns2b_c1_scaffolds

>  <placement_batch>  (102) 
openbind_xx01zvns2b_c1_knitwork_impure

>  <inspiration_score>  (102) 
None

>  <name>  (102) 
P57405

>  <HIPPO Pose ID>  (102) 
57405

>  <ref_pdb>  (102) 
Z0819a

>  <inchikey>  (102) 
CJSMBSPCAQFIGB-UHFFFAOYSA-N

>  <alias>  (102) 
None

>  <ref_mols>  (102) 
Z1597a,Z0819a

>  <subsites>  (102) 
1 - Z4590/B/203/1

>  <distance_score>  (102) 
0.900799

>  <HIPPO Compound ID>  (102) 
58418

>  <smiles>  (102) 
c1cc([C@H]2CCCNC2)on1

>  <energy_score>  (102) 
-24.646963

$$$$
P57431
     RDKit          3D

 22 25  0  0  0  0  0  0  0  0999 V2000
   -6.0210    4.4332  -12.9778 C   0  0  0  0  0  0  0  0  0  0  0  0
   -7.3303    5.0214  -13.2639 N   0  0  0  0  0  0  0  0  0  0  0  0
   -8.3934    4.6512  -12.2907 C   0  0  0  0  0  0  0  0  0  0  0  0
   -8.2319    4.8332  -10.7950 C   0  0  0  0  0  0  0  0  0  0  0  0
   -8.0477    6.0364  -10.0671 C   0  0  0  0  0  0  0  0  0  0  0  0
   -8.1099    5.8696   -8.7390 N   0  0  0  0  0  0  0  0  0  0  0  0
   -8.3641    4.5561   -8.6090 N   0  0  0  0  0  0  0  0  0  0  0  0
   -8.3937    3.8813   -9.7952 C   0  0  0  0  0  0  0  0  0  0  0  0
   -8.6826    2.4248   -9.8281 C   0  0  0  0  0  0  0  0  0  0  0  0
   -8.6030    1.8009   -8.5093 N   0  0  0  0  0  0  0  0  0  0  0  0
   -9.2550    2.5847   -7.4679 C   0  0  0  0  0  0  0  0  0  0  0  0
   -8.6091    3.9586   -7.3089 C   0  0  0  0  0  0  0  0  0  0  0  0
   -7.7506    4.8261  -14.6360 C   0  0  0  0  0  0  0  0  0  0  0  0
   -9.0399    4.4778  -14.8396 N   0  0  0  0  0  0  0  0  0  0  0  0
   -9.4236    4.1963  -16.0952 C   0  0  0  0  0  0  0  0  0  0  0  0
   -8.7007    4.2857  -17.2002 N   0  0  0  0  0  0  0  0  0  0  0  0
   -7.4594    4.7042  -17.0103 C   0  0  0  0  0  0  0  0  0  0  0  0
   -6.6886    4.8391  -18.1488 C   0  0  0  0  0  0  0  0  0  0  0  0
   -5.3763    5.2694  -18.0671 C   0  0  0  0  0  0  0  0  0  0  0  0
   -4.8823    5.5631  -16.8167 C   0  0  0  0  0  0  0  0  0  0  0  0
   -5.5981    5.4509  -15.6780 N   0  0  0  0  0  0  0  0  0  0  0  0
   -6.8866    5.0103  -15.7506 C   0  0  0  0  0  0  0  0  0  0  0  0
  1  2  1  0
  2  3  1  0
  3  4  1  0
  4  5  1  0
  5  6  2  0
  6  7  1  0
  7  8  1  0
  8  9  1  0
  9 10  1  0
 10 11  1  0
 11 12  1  0
  2 13  1  0
 13 14  2  0
 14 15  1  0
 15 16  2  0
 16 17  1  0
 17 18  2  0
 18 19  1  0
 19 20  2  0
 20 21  1  0
 21 22  2  0
  8  4  2  0
 22 13  1  0
 12  7  1  0
 22 17  1  0
M  END
>  <tags>  (103) 
openbind_xx01zvns2b_c1_knitwork_impure,BulkDock Fragalysis export,fragmenstein_placed,openbind_xx01zvns2b_c1_scaffolds

>  <placement_batch>  (103) 
openbind_xx01zvns2b_c1_knitwork_impure

>  <inspiration_score>  (103) 
None

>  <name>  (103) 
P57431

>  <HIPPO Pose ID>  (103) 
57431

>  <ref_pdb>  (103) 
Z0969a

>  <inchikey>  (103) 
XJWZZWIUMUDVFB-UHFFFAOYSA-N

>  <alias>  (103) 
None

>  <ref_mols>  (103) 
Z0709a,Z0969a

>  <subsites>  (103) 
1 - Z4590/B/203/1

>  <distance_score>  (103) 
0.996695

>  <HIPPO Compound ID>  (103) 
66668

>  <smiles>  (103) 
CN(Cc1cnn2c1CNCC2)c1ncnc2cccnc12

>  <energy_score>  (103) 
-42.52673

$$$$
P57529
     RDKit          3D

 21 24  0  0  0  0  0  0  0  0999 V2000
   -6.2605    6.0799  -13.2793 O   0  0  0  0  0  0  0  0  0  0  0  0
   -6.8257    5.0689  -13.5068 C   0  0  0  0  0  0  0  0  0  0  0  0
   -7.2711    4.8425  -14.9198 C   0  0  0  0  0  0  0  0  0  0  0  0
   -8.5565    4.3785  -15.2802 C   0  0  0  0  0  0  0  0  0  0  0  0
   -8.8907    4.1187  -16.6221 C   0  0  0  0  0  0  0  0  0  0  0  0
   -7.9043    4.3030  -17.5604 C   0  0  0  0  0  0  0  0  0  0  0  0
   -7.8922    4.0201  -18.9231 N   0  0  0  0  0  0  0  0  0  0  0  0
   -6.6066    4.2883  -19.4273 C   0  0  0  0  0  0  0  0  0  0  0  0
   -6.1773    4.0553  -20.5465 O   0  0  0  0  0  0  0  0  0  0  0  0
   -5.8664    4.8270  -18.3599 N   0  0  0  0  0  0  0  0  0  0  0  0
   -6.6495    4.7907  -17.2119 C   0  0  0  0  0  0  0  0  0  0  0  0
   -6.3071    5.0889  -15.9137 C   0  0  0  0  0  0  0  0  0  0  0  0
   -7.1024    3.8818  -12.6142 N   0  0  0  0  0  0  0  0  0  0  0  0
   -8.4615    4.0380  -11.8587 C   0  0  0  0  0  0  0  0  0  0  0  0
   -8.0054    2.9952  -10.8750 C   0  0  0  0  0  0  0  0  0  0  0  0
   -8.4834    3.1696   -9.4074 C   0  0  0  0  0  0  0  0  0  0  0  0
   -9.0733    2.2181   -8.6079 C   0  0  0  0  0  0  0  0  0  0  0  0
   -9.3350    2.7344   -7.3599 N   0  0  0  0  0  0  0  0  0  0  0  0
   -8.8659    3.9587   -7.3862 C   0  0  0  0  0  0  0  0  0  0  0  0
   -8.3545    4.2738   -8.6119 N   0  0  0  0  0  0  0  0  0  0  0  0
   -6.6554    3.5853  -11.1968 C   0  0  0  0  0  0  0  0  0  0  0  0
  1  2  2  0
  2  3  1  0
  3  4  2  0
  4  5  1  0
  5  6  2  0
  6  7  1  0
  7  8  1  0
  8  9  2  0
  8 10  1  0
 10 11  1  0
 11 12  2  0
  2 13  1  0
 13 14  1  0
 14 15  1  0
 15 16  1  0
 16 17  2  0
 17 18  1  0
 18 19  2  0
 19 20  1  0
 15 21  1  0
 12  3  1  0
 21 13  1  0
 11  6  1  0
 20 16  1  0
M  END
>  <tags>  (104) 
openbind_xx01zvns2b_c1_knitwork_impure,BulkDock Fragalysis export,fragmenstein_placed,openbind_xx01zvns2b_c1_scaffolds

>  <placement_batch>  (104) 
openbind_xx01zvns2b_c1_knitwork_impure

>  <inspiration_score>  (104) 
None

>  <name>  (104) 
P57529

>  <HIPPO Pose ID>  (104) 
57529

>  <ref_pdb>  (104) 
Z4245a

>  <inchikey>  (104) 
HILYPOGYXWEOSU-UHFFFAOYSA-N

>  <alias>  (104) 
None

>  <ref_mols>  (104) 
Z1688a,Z4245a

>  <subsites>  (104) 
1 - Z4590/B/203/1

>  <distance_score>  (104) 
0.834968

>  <HIPPO Compound ID>  (104) 
66767

>  <smiles>  (104) 
O=C(c1ccc2[nH]c(=O)[nH]c2c1)N1CC(c2cnc[nH]2)C1

>  <energy_score>  (104) 
-7.560257

$$$$
P57582
     RDKit          3D

 11 12  0  0  0  0  0  0  0  0999 V2000
   -8.9207    4.3191  -17.8115 C   0  0  0  0  0  0  0  0  0  0  0  0
   -9.0233    4.7092  -16.3414 C   0  0  0  0  0  0  0  0  0  0  0  0
   -7.7465    4.6296  -15.6356 N   0  0  0  0  0  0  0  0  0  0  0  0
   -6.7367    5.4542  -16.2934 C   0  0  0  0  0  0  0  0  0  0  0  0
   -6.4569    4.9983  -17.7333 C   0  0  2  0  0  0  0  0  0  0  0  0
   -5.2848    5.8276  -18.3172 C   0  0  1  0  0  0  0  0  0  0  0  0
   -4.6612    5.2313  -19.5120 N   0  0  0  0  0  0  0  0  0  0  0  0
   -3.9506    6.3213  -20.1949 C   0  0  0  0  0  0  0  0  0  0  0  0
   -4.9206    7.4778  -20.3596 C   0  0  0  0  0  0  0  0  0  0  0  0
   -5.7184    7.5589  -18.7467 S   0  0  0  0  0  0  0  0  0  0  0  0
   -7.7621    4.9938  -18.5474 C   0  0  0  0  0  0  0  0  0  0  0  0
  1  2  1  0
  2  3  1  0
  3  4  1  0
  5  4  1  1
  5  6  1  0
  6  7  1  6
  7  8  1  0
  8  9  1  0
  9 10  1  0
  5 11  1  0
 11  1  1  0
 10  6  1  0
M  END
>  <tags>  (105) 
openbind_xx01zvns2b_c1_knitwork_impure,fragmenstein_placed,openbind_xx01zvns2b_c1_scaffolds_chemok_bbok,BulkDock Fragalysis export,openbind_xx01zvns2b_c1_scaffolds

>  <placement_batch>  (105) 
openbind_xx01zvns2b_c1_knitwork_impure

>  <inspiration_score>  (105) 
None

>  <name>  (105) 
P57582

>  <HIPPO Pose ID>  (105) 
57582

>  <ref_pdb>  (105) 
Z0182a

>  <inchikey>  (105) 
QJPNSVNXQPBEHO-UHFFFAOYSA-N

>  <alias>  (105) 
None

>  <ref_mols>  (105) 
Z0917a,Z1729a,Z0182a

>  <subsites>  (105) 
1 - Z4590/B/203/1

>  <distance_score>  (105) 
0.918506

>  <HIPPO Compound ID>  (105) 
64868

>  <smiles>  (105) 
C1CNC[C@H]([C@H]2NCCS2)C1

>  <energy_score>  (105) 
-30.106041

$$$$
P58043
     RDKit          3D

 22 24  0  0  0  0  0  0  0  0999 V2000
   -8.9506    2.8672   -6.5364 C   0  0  0  0  0  0  0  0  0  0  0  0
   -8.2895    4.1291   -7.1332 C   0  0  0  0  0  0  0  0  0  0  0  0
   -8.9483    5.3565   -6.4732 C   0  0  0  0  0  0  0  0  0  0  0  0
   -6.8784    4.1527   -6.6808 N   0  0  0  0  0  0  0  0  0  0  0  0
   -8.3132    4.1681   -8.6717 C   0  0  0  0  0  0  0  0  0  0  0  0
   -7.8438    5.2981   -9.3704 C   0  0  0  0  0  0  0  0  0  0  0  0
   -7.7593    5.3198  -10.7707 C   0  0  0  0  0  0  0  0  0  0  0  0
   -8.1664    4.2202  -11.5172 C   0  0  0  0  0  0  0  0  0  0  0  0
   -8.0817    4.2019  -12.9093 N   0  0  0  0  0  0  0  0  0  0  0  0
   -7.5279    5.2567  -13.8962 C   0  0  0  0  0  0  0  0  0  0  0  0
   -6.9864    6.2718  -13.6939 O   0  0  0  0  0  0  0  0  0  0  0  0
   -7.7760    4.8356  -15.2732 C   0  0  0  0  0  0  0  0  0  0  0  0
   -8.9035    4.2497  -15.8276 C   0  0  0  0  0  0  0  0  0  0  0  0
   -8.7332    4.1431  -17.2249 C   0  0  0  0  0  0  0  0  0  0  0  0
   -7.4820    4.6374  -17.5122 C   0  0  0  0  0  0  0  0  0  0  0  0
   -6.9017    5.0172  -16.3241 N   0  0  0  0  0  0  0  0  0  0  0  0
   -5.5180    5.4554  -16.2407 C   0  0  0  0  0  0  0  0  0  0  0  0
   -4.9540    5.8271  -17.6160 C   0  0  0  0  0  0  0  0  0  0  0  0
   -5.3246    4.8555  -18.6457 N   0  0  0  0  0  0  0  0  0  0  0  0
   -6.7869    4.8250  -18.8126 C   0  0  0  0  0  0  0  0  0  0  0  0
   -8.6574    3.1034  -10.8515 C   0  0  0  0  0  0  0  0  0  0  0  0
   -8.7147    3.0697   -9.4501 C   0  0  0  0  0  0  0  0  0  0  0  0
  1  2  1  0
  2  3  1  0
  2  4  1  0
  2  5  1  0
  5  6  2  0
  6  7  1  0
  7  8  2  0
  8  9  1  0
  9 10  1  0
 10 11  2  0
 10 12  1  0
 12 13  2  0
 13 14  1  0
 14 15  2  0
 15 16  1  0
 16 17  1  0
 17 18  1  0
 18 19  1  0
 19 20  1  0
  8 21  1  0
 21 22  2  0
 22  5  1  0
 16 12  1  0
 20 15  1  0
M  END
>  <tags>  (106) 
openbind_xx01zvns2b_c1_knitwork_impure,fragmenstein_placed,openbind_xx01zvns2b_c1_scaffolds_chemok_bbok,BulkDock Fragalysis export,openbind_xx01zvns2b_c1_scaffolds

>  <placement_batch>  (106) 
openbind_xx01zvns2b_c1_knitwork_impure

>  <inspiration_score>  (106) 
None

>  <name>  (106) 
P58043

>  <HIPPO Pose ID>  (106) 
58043

>  <ref_pdb>  (106) 
Z0089a

>  <inchikey>  (106) 
FKPGXDWGIHFFPF-UHFFFAOYSA-N

>  <alias>  (106) 
None

>  <ref_mols>  (106) 
Z3503a,Z0089a

>  <subsites>  (106) 
1 - Z4590/B/203/1

>  <distance_score>  (106) 
0.69913

>  <HIPPO Compound ID>  (106) 
67571

>  <smiles>  (106) 
CC(C)(N)c1ccc(NC(=O)c2ccc3n2CCNC3)cc1

>  <energy_score>  (106) 
-11.475091

$$$$
P58109
     RDKit          3D

 13 14  0  0  0  0  0  0  0  0999 V2000
   -7.9888    5.0973  -11.5519 C   0  0  0  0  0  0  0  0  0  0  0  0
   -7.8463    4.7017  -13.0212 C   0  0  0  0  0  0  0  0  0  0  0  0
   -7.2448    5.8290  -13.8701 C   0  0  2  0  0  0  0  0  0  0  0  0
   -8.1690    6.9691  -13.9230 N   0  0  0  0  0  0  0  0  0  0  0  0
   -6.8040    5.4667  -15.2689 C   0  0  0  0  0  0  0  0  0  0  0  0
   -5.4820    5.6884  -15.6753 C   0  0  0  0  0  0  0  0  0  0  0  0
   -5.0038    5.5619  -16.9464 N   0  0  0  0  0  0  0  0  0  0  0  0
   -5.8986    5.2064  -17.8954 C   0  0  0  0  0  0  0  0  0  0  0  0
   -7.2148    4.9506  -17.5942 C   0  0  0  0  0  0  0  0  0  0  0  0
   -7.6596    5.0417  -16.2741 C   0  0  0  0  0  0  0  0  0  0  0  0
   -9.1200    4.7335  -16.2011 C   0  0  0  0  0  0  0  0  0  0  0  0
   -9.4270    4.1784  -17.5971 C   0  0  0  0  0  0  0  0  0  0  0  0
   -8.3419    4.6971  -18.5356 C   0  0  0  0  0  0  0  0  0  0  0  0
  1  2  1  0
  2  3  1  0
  3  4  1  6
  3  5  1  0
  5  6  2  0
  6  7  1  0
  7  8  2  0
  8  9  1  0
  9 10  2  0
 10 11  1  0
 11 12  1  0
 12 13  1  0
 10  5  1  0
 13  9  1  0
M  END
>  <tags>  (107) 
openbind_xx01zvns2b_c1_knitwork_impure,fragmenstein_placed,openbind_xx01zvns2b_c1_scaffolds_chemok_bbok,BulkDock Fragalysis export,openbind_xx01zvns2b_c1_scaffolds

>  <placement_batch>  (107) 
openbind_xx01zvns2b_c1_knitwork_impure

>  <inspiration_score>  (107) 
None

>  <name>  (107) 
P58109

>  <HIPPO Pose ID>  (107) 
58109

>  <ref_pdb>  (107) 
Z0472a

>  <inchikey>  (107) 
RPDQXTVSWCOFJV-UHFFFAOYSA-N

>  <alias>  (107) 
None

>  <ref_mols>  (107) 
Z1495a,Z0472a

>  <subsites>  (107) 
1 - Z4590/B/203/1

>  <distance_score>  (107) 
0.843998

>  <HIPPO Compound ID>  (107) 
64072

>  <smiles>  (107) 
CC[C@H](N)c1cncc2c1CCC2

>  <energy_score>  (107) 
-14.183844

$$$$
P58130
     RDKit          3D

 23 26  0  0  0  0  0  0  0  0999 V2000
   -6.1280    5.3443  -13.2222 O   0  0  0  0  0  0  0  0  0  0  0  0
   -6.8790    4.6425  -13.7764 C   0  0  0  0  0  0  0  0  0  0  0  0
   -7.7770    3.5063  -13.2329 N   0  0  0  0  0  0  0  0  0  0  0  0
   -7.8672    2.9353  -11.9148 C   0  0  0  0  0  0  0  0  0  0  0  0
   -8.0358    3.8790  -10.7711 C   0  0  0  0  0  0  0  0  0  0  0  0
   -7.9429    3.3771   -9.4743 C   0  0  0  0  0  0  0  0  0  0  0  0
   -8.0371    4.2631   -8.4210 C   0  0  0  0  0  0  0  0  0  0  0  0
   -8.2141    5.5950   -8.5667 N   0  0  0  0  0  0  0  0  0  0  0  0
   -8.3211    6.0867   -9.8267 C   0  0  0  0  0  0  0  0  0  0  0  0
   -8.5246    7.5688  -10.0182 C   0  0  0  0  0  0  0  0  0  0  0  0
   -7.5670    8.5408   -9.3668 C   0  0  0  0  0  0  0  0  0  0  0  0
   -7.5622    8.3790  -10.8569 C   0  0  0  0  0  0  0  0  0  0  0  0
   -8.2672    5.2446  -10.9305 C   0  0  0  0  0  0  0  0  0  0  0  0
   -6.9991    4.7050  -15.2790 C   0  0  0  0  0  0  0  0  0  0  0  0
   -5.7861    5.0027  -16.0445 C   0  0  0  0  0  0  0  0  0  0  0  0
   -5.7292    4.8519  -17.3765 C   0  0  0  0  0  0  0  0  0  0  0  0
   -6.9463    4.3789  -18.0491 C   0  0  0  0  0  0  0  0  0  0  0  0
   -7.0656    4.0106  -19.2840 N   0  0  0  0  0  0  0  0  0  0  0  0
   -8.4002    3.7036  -19.3840 N   0  0  0  0  0  0  0  0  0  0  0  0
   -9.0627    3.9303  -18.1800 C   0  0  0  0  0  0  0  0  0  0  0  0
  -10.2514    3.7863  -17.9545 O   0  0  0  0  0  0  0  0  0  0  0  0
   -8.0824    4.3226  -17.3104 N   0  0  0  0  0  0  0  0  0  0  0  0
   -8.1410    4.4689  -15.9511 C   0  0  0  0  0  0  0  0  0  0  0  0
  1  2  2  0
  2  3  1  0
  3  4  1  0
  4  5  1  0
  5  6  2  0
  6  7  1  0
  7  8  2  0
  8  9  1  0
  9 10  1  0
 10 11  1  0
 11 12  1  0
  9 13  2  0
  2 14  1  0
 14 15  1  0
 15 16  2  0
 16 17  1  0
 17 18  2  0
 18 19  1  0
 19 20  1  0
 20 21  2  0
 20 22  1  0
 22 23  1  0
 13  5  1  0
 23 14  2  0
 12 10  1  0
 22 17  1  0
M  END
>  <tags>  (108) 
openbind_xx01zvns2b_c1_knitwork_impure,BulkDock Fragalysis export,fragmenstein_placed,openbind_xx01zvns2b_c1_scaffolds

>  <placement_batch>  (108) 
openbind_xx01zvns2b_c1_knitwork_impure

>  <inspiration_score>  (108) 
None

>  <name>  (108) 
P58130

>  <HIPPO Pose ID>  (108) 
58130

>  <ref_pdb>  (108) 
Z1274a

>  <inchikey>  (108) 
NMYZMXLPNNPYHC-UHFFFAOYSA-N

>  <alias>  (108) 
None

>  <ref_mols>  (108) 
Z0709a,Z1274a

>  <subsites>  (108) 
1 - Z4590/B/203/1

>  <distance_score>  (108) 
0.913107

>  <HIPPO Compound ID>  (108) 
67747

>  <smiles>  (108) 
O=C(NCc1ccnc(C2CC2)c1)c1ccc2n[nH]c(=O)n2c1

>  <energy_score>  (108) 
-9.700002

$$$$
P58132
     RDKit          3D

 21 23  0  0  0  0  0  0  0  0999 V2000
   -6.8819    7.7194  -10.9294 C   0  0  0  0  0  0  0  0  0  0  0  0
   -8.1787    6.9534  -11.1549 C   0  0  0  0  0  0  0  0  0  0  0  0
   -8.0608    5.4967  -10.7902 C   0  0  0  0  0  0  0  0  0  0  0  0
   -8.1281    5.2005   -9.4114 C   0  0  0  0  0  0  0  0  0  0  0  0
   -8.1517    3.8848   -8.9849 C   0  0  0  0  0  0  0  0  0  0  0  0
   -8.1275    2.8461   -9.8278 N   0  0  0  0  0  0  0  0  0  0  0  0
   -8.0392    3.1380  -11.1433 C   0  0  0  0  0  0  0  0  0  0  0  0
   -7.9669    4.4261  -11.6894 C   0  0  0  0  0  0  0  0  0  0  0  0
   -7.7973    4.4816  -13.0830 N   0  0  0  0  0  0  0  0  0  0  0  0
   -7.2593    5.6203  -13.9874 C   0  0  0  0  0  0  0  0  0  0  0  0
   -6.9469    6.7141  -13.7224 O   0  0  0  0  0  0  0  0  0  0  0  0
   -7.1320    5.1077  -15.3798 C   0  0  0  0  0  0  0  0  0  0  0  0
   -5.8641    5.2357  -16.0864 C   0  0  0  0  0  0  0  0  0  0  0  0
   -5.7357    4.8688  -17.3718 C   0  0  0  0  0  0  0  0  0  0  0  0
   -6.9253    4.3224  -18.0468 C   0  0  0  0  0  0  0  0  0  0  0  0
   -7.0064    3.8811  -19.2618 N   0  0  0  0  0  0  0  0  0  0  0  0
   -8.3335    3.5473  -19.3776 N   0  0  0  0  0  0  0  0  0  0  0  0
   -9.0325    3.8455  -18.2107 C   0  0  0  0  0  0  0  0  0  0  0  0
  -10.2306    3.7434  -18.0159 O   0  0  0  0  0  0  0  0  0  0  0  0
   -8.0801    4.2829  -17.3358 N   0  0  0  0  0  0  0  0  0  0  0  0
   -8.2162    4.6549  -16.0297 C   0  0  0  0  0  0  0  0  0  0  0  0
  1  2  1  0
  2  3  1  0
  3  4  2  0
  4  5  1  0
  5  6  2  0
  6  7  1  0
  7  8  2  0
  8  9  1  0
  9 10  1  0
 10 11  2  0
 10 12  1  0
 12 13  1  0
 13 14  2  0
 14 15  1  0
 15 16  2  0
 16 17  1  0
 17 18  1  0
 18 19  2  0
 18 20  1  0
 20 21  1  0
  8  3  1  0
 21 12  2  0
 20 15  1  0
M  END
>  <tags>  (109) 
openbind_xx01zvns2b_c1_knitwork_impure,fragmenstein_placed,openbind_xx01zvns2b_c1_scaffolds_chemok_bbok,BulkDock Fragalysis export,openbind_xx01zvns2b_c1_scaffolds

>  <placement_batch>  (109) 
openbind_xx01zvns2b_c1_knitwork_impure

>  <inspiration_score>  (109) 
None

>  <name>  (109) 
P58132

>  <HIPPO Pose ID>  (109) 
58132

>  <ref_pdb>  (109) 
Z1274a

>  <inchikey>  (109) 
YZDLYBYTHWZGDA-UHFFFAOYSA-N

>  <alias>  (109) 
None

>  <ref_mols>  (109) 
Z0709a,Z1274a

>  <subsites>  (109) 
1 - Z4590/B/203/1

>  <distance_score>  (109) 
0.687401

>  <HIPPO Compound ID>  (109) 
67752

>  <smiles>  (109) 
CCc1ccncc1NC(=O)c1ccc2n[nH]c(=O)n2c1

>  <energy_score>  (109) 
-28.995746

$$$$
P58181
     RDKit          3D

 16 18  0  0  0  0  0  0  0  0999 V2000
   -7.5562    4.5755  -18.6398 C   0  0  0  0  0  0  0  0  0  0  0  0
   -8.4794    4.3735  -17.6229 C   0  0  0  0  0  0  0  0  0  0  0  0
   -8.2192    4.8170  -16.3274 C   0  0  0  0  0  0  0  0  0  0  0  0
   -7.0155    5.5006  -16.0908 C   0  0  0  0  0  0  0  0  0  0  0  0
   -6.0893    5.7401  -17.1116 C   0  0  0  0  0  0  0  0  0  0  0  0
   -6.3634    5.2642  -18.4057 C   0  0  0  0  0  0  0  0  0  0  0  0
   -5.0014    6.4515  -16.5417 C   0  0  0  0  0  0  0  0  0  0  0  0
   -5.2619    6.6064  -15.2008 C   0  0  0  0  0  0  0  0  0  0  0  0
   -6.4777    6.0209  -14.9302 N   0  0  0  0  0  0  0  0  0  0  0  0
   -7.0645    5.8668  -13.5848 C   0  0  1  0  0  0  0  0  0  0  0  0
   -6.2691    4.7938  -12.8235 C   0  0  0  0  0  0  0  0  0  0  0  0
   -6.9856    4.1074  -11.6612 C   0  0  0  0  0  0  0  0  0  0  0  0
   -7.9859    4.9454  -10.8755 C   0  0  0  0  0  0  0  0  0  0  0  0
   -7.5260    6.2969  -10.5677 N   0  0  0  0  0  0  0  0  0  0  0  0
   -7.9196    7.2618  -11.5858 C   0  0  0  0  0  0  0  0  0  0  0  0
   -7.0910    7.2249  -12.8643 C   0  0  0  0  0  0  0  0  0  0  0  0
  1  2  2  0
  2  3  1  0
  3  4  2  0
  4  5  1  0
  5  6  2  0
  5  7  1  0
  7  8  2  0
  8  9  1  0
 10  9  1  6
 10 11  1  0
 11 12  1  0
 12 13  1  0
 13 14  1  0
 14 15  1  0
 15 16  1  0
  6  1  1  0
 16 10  1  0
  9  4  1  0
M  END
>  <tags>  (110) 
openbind_xx01zvns2b_c1_knitwork_impure,BulkDock Fragalysis export,fragmenstein_placed,openbind_xx01zvns2b_c1_scaffolds

>  <placement_batch>  (110) 
openbind_xx01zvns2b_c1_knitwork_impure

>  <inspiration_score>  (110) 
None

>  <name>  (110) 
P58181

>  <HIPPO Pose ID>  (110) 
58181

>  <ref_pdb>  (110) 
Z2971a

>  <inchikey>  (110) 
BMYSZWRSVQNPKZ-UHFFFAOYSA-N

>  <alias>  (110) 
None

>  <ref_mols>  (110) 
Z0917a,Z0827a,Z2971a

>  <subsites>  (110) 
1 - Z4590/B/203/1

>  <distance_score>  (110) 
0.885609

>  <HIPPO Compound ID>  (110) 
67872

>  <smiles>  (110) 
c1ccc2c(c1)ccn2[C@H]1CCCNCC1

>  <energy_score>  (110) 
-24.762219

$$$$
P58239
     RDKit          3D

 12 12  0  0  0  0  0  0  0  0999 V2000
   -5.3748    5.9255  -15.4704 C   0  0  0  0  0  0  0  0  0  0  0  0
   -6.6073    5.0742  -15.7907 C   0  0  1  0  0  0  0  0  0  0  0  0
   -7.8355    5.5693  -15.0646 N   0  0  0  0  0  0  0  0  0  0  0  0
   -7.7633    5.6266  -13.7062 C   0  0  0  0  0  0  0  0  0  0  0  0
   -8.0781    4.7617  -12.6806 C   0  0  0  0  0  0  0  0  0  0  0  0
   -7.8177    5.3461  -11.4600 N   0  0  0  0  0  0  0  0  0  0  0  0
   -7.3831    6.5529  -11.7382 C   0  0  0  0  0  0  0  0  0  0  0  0
   -7.3457    6.7709  -13.0836 N   0  0  0  0  0  0  0  0  0  0  0  0
   -6.7866    5.0309  -17.3284 C   0  0  0  0  0  0  0  0  0  0  0  0
   -7.9042    4.3570  -17.6743 F   0  0  0  0  0  0  0  0  0  0  0  0
   -6.8698    6.2758  -17.8501 F   0  0  0  0  0  0  0  0  0  0  0  0
   -5.7197    4.4429  -17.9139 F   0  0  0  0  0  0  0  0  0  0  0  0
  2  1  1  6
  2  3  1  0
  3  4  1  0
  4  5  2  0
  5  6  1  0
  6  7  2  0
  7  8  1  0
  2  9  1  0
  9 10  1  0
  9 11  1  0
  9 12  1  0
  8  4  1  0
M  END
>  <tags>  (111) 
openbind_xx01zvns2b_c1_knitwork_impure,BulkDock Fragalysis export,fragmenstein_placed,openbind_xx01zvns2b_c1_scaffolds

>  <placement_batch>  (111) 
openbind_xx01zvns2b_c1_knitwork_impure

>  <inspiration_score>  (111) 
None

>  <name>  (111) 
P58239

>  <HIPPO Pose ID>  (111) 
58239

>  <ref_pdb>  (111) 
Z1688a

>  <inchikey>  (111) 
UTJRPXODKTXQCF-UHFFFAOYSA-N

>  <alias>  (111) 
None

>  <ref_mols>  (111) 
Z1688a,Z0089a

>  <subsites>  (111) 
1 - Z4590/B/203/1

>  <distance_score>  (111) 
0.789242

>  <HIPPO Compound ID>  (111) 
68023

>  <smiles>  (111) 
C[C@@H](Nc1cnc[nH]1)C(F)(F)F

>  <energy_score>  (111) 
-13.870237

$$$$
P58263
     RDKit          3D

 13 13  0  0  0  0  0  0  0  0999 V2000
   -5.4109    5.8101  -15.6039 C   0  0  0  0  0  0  0  0  0  0  0  0
   -6.7106    5.0955  -15.9964 C   0  0  2  0  0  0  0  0  0  0  0  0
   -7.0216    5.4353  -17.4590 C   0  0  0  0  0  0  0  0  0  0  0  0
   -8.0320    4.5143  -18.0995 C   0  0  0  0  0  0  0  0  0  0  0  0
   -8.7373    3.8014  -17.1949 F   0  0  0  0  0  0  0  0  0  0  0  0
   -8.9302    5.1861  -18.8419 F   0  0  0  0  0  0  0  0  0  0  0  0
   -7.3949    3.6721  -18.9387 F   0  0  0  0  0  0  0  0  0  0  0  0
   -7.8645    5.4973  -15.1453 N   0  0  0  0  0  0  0  0  0  0  0  0
   -7.6961    5.5608  -13.7947 C   0  0  0  0  0  0  0  0  0  0  0  0
   -7.9791    4.7101  -12.7471 C   0  0  0  0  0  0  0  0  0  0  0  0
   -7.6496    5.2961  -11.5440 N   0  0  0  0  0  0  0  0  0  0  0  0
   -7.2090    6.4933  -11.8519 C   0  0  0  0  0  0  0  0  0  0  0  0
   -7.2311    6.7015  -13.1995 N   0  0  0  0  0  0  0  0  0  0  0  0
  2  1  1  1
  2  3  1  0
  3  4  1  0
  4  5  1  0
  4  6  1  0
  4  7  1  0
  2  8  1  0
  8  9  1  0
  9 10  2  0
 10 11  1  0
 11 12  2  0
 12 13  1  0
 13  9  1  0
M  END
>  <tags>  (112) 
openbind_xx01zvns2b_c1_knitwork_impure,fragmenstein_placed,openbind_xx01zvns2b_c1_scaffolds_chemok_bbok,BulkDock Fragalysis export,openbind_xx01zvns2b_c1_scaffolds

>  <placement_batch>  (112) 
openbind_xx01zvns2b_c1_knitwork_impure

>  <inspiration_score>  (112) 
None

>  <name>  (112) 
P58263

>  <HIPPO Pose ID>  (112) 
58263

>  <ref_pdb>  (112) 
Z1688a

>  <inchikey>  (112) 
YDYQRPXCINJZCL-UHFFFAOYSA-N

>  <alias>  (112) 
None

>  <ref_mols>  (112) 
Z1688a,Z0089a

>  <subsites>  (112) 
1 - Z4590/B/203/1

>  <distance_score>  (112) 
0.770562

>  <HIPPO Compound ID>  (112) 
68050

>  <smiles>  (112) 
C[C@H](CC(F)(F)F)Nc1cnc[nH]1

>  <energy_score>  (112) 
-23.383027

$$$$
P58291
     RDKit          3D

 15 16  0  0  0  0  0  0  0  0999 V2000
    0.0355    5.4788  -19.2569 C   0  0  0  0  0  0  0  0  0  0  0  0
   -1.3130    4.8666  -19.6226 C   0  0  0  0  0  0  0  0  0  0  0  0
   -2.4799    5.7725  -19.2075 C   0  0  1  0  0  0  0  0  0  0  0  0
   -2.5442    7.0668  -20.0066 C   0  0  0  0  0  0  0  0  0  0  0  0
   -3.7114    5.0317  -19.3871 N   0  0  0  0  0  0  0  0  0  0  0  0
   -4.7249    5.0665  -18.4547 C   0  0  0  0  0  0  0  0  0  0  0  0
   -4.4940    5.1968  -17.0904 C   0  0  0  0  0  0  0  0  0  0  0  0
   -5.5505    5.1069  -16.2022 C   0  0  0  0  0  0  0  0  0  0  0  0
   -6.8108    4.8202  -16.7055 C   0  0  0  0  0  0  0  0  0  0  0  0
   -7.8677    4.5816  -15.8334 C   0  0  0  0  0  0  0  0  0  0  0  0
   -9.1009    4.2248  -16.3506 C   0  0  0  0  0  0  0  0  0  0  0  0
   -9.3075    4.1545  -17.7205 C   0  0  0  0  0  0  0  0  0  0  0  0
   -8.2433    4.3939  -18.5841 C   0  0  0  0  0  0  0  0  0  0  0  0
   -6.9809    4.7094  -18.1018 C   0  0  0  0  0  0  0  0  0  0  0  0
   -5.9538    4.8603  -18.9517 N   0  0  0  0  0  0  0  0  0  0  0  0
  1  2  1  0
  2  3  1  0
  3  4  1  6
  3  5  1  0
  5  6  1  0
  6  7  2  0
  7  8  1  0
  8  9  2  0
  9 10  1  0
 10 11  2  0
 11 12  1  0
 12 13  2  0
 13 14  1  0
 14 15  2  0
 15  6  1  0
 14  9  1  0
M  END
>  <tags>  (113) 
openbind_xx01zvns2b_c1_knitwork_impure,fragmenstein_placed,openbind_xx01zvns2b_c1_scaffolds_chemok_bbok,BulkDock Fragalysis export,openbind_xx01zvns2b_c1_scaffolds

>  <placement_batch>  (113) 
openbind_xx01zvns2b_c1_knitwork_impure

>  <inspiration_score>  (113) 
None

>  <name>  (113) 
P58291

>  <HIPPO Pose ID>  (113) 
58291

>  <ref_pdb>  (113) 
Z1688a

>  <inchikey>  (113) 
XJHFOHPLVXEAJK-UHFFFAOYSA-N

>  <alias>  (113) 
None

>  <ref_mols>  (113) 
Z1688a,Z0089a

>  <subsites>  (113) 
1 - Z4590/B/203/1

>  <distance_score>  (113) 
0.95692

>  <HIPPO Compound ID>  (113) 
65268

>  <smiles>  (113) 
CC[C@@H](C)Nc1ccc2ccccc2n1

>  <energy_score>  (113) 
-21.513084

$$$$
P58294
     RDKit          3D

 15 16  0  0  0  0  0  0  0  0999 V2000
   -0.4737    6.1184  -20.4549 C   0  0  0  0  0  0  0  0  0  0  0  0
   -1.7071    5.2245  -20.4163 C   0  0  1  0  0  0  0  0  0  0  0  0
   -1.3768    3.7815  -19.4315 Cl  0  0  0  0  0  0  0  0  0  0  0  0
   -2.9115    5.9899  -19.8604 C   0  0  0  0  0  0  0  0  0  0  0  0
   -4.0733    5.1331  -19.8304 N   0  0  0  0  0  0  0  0  0  0  0  0
   -4.9362    5.1206  -18.7637 C   0  0  0  0  0  0  0  0  0  0  0  0
   -4.5238    5.2683  -17.4459 C   0  0  0  0  0  0  0  0  0  0  0  0
   -5.4521    5.1605  -16.4244 C   0  0  0  0  0  0  0  0  0  0  0  0
   -6.7670    4.8571  -16.7557 C   0  0  0  0  0  0  0  0  0  0  0  0
   -7.7126    4.6457  -15.7576 C   0  0  0  0  0  0  0  0  0  0  0  0
   -9.0062    4.3014  -16.1138 C   0  0  0  0  0  0  0  0  0  0  0  0
   -9.3778    4.1989  -17.4496 C   0  0  0  0  0  0  0  0  0  0  0  0
   -8.4247    4.4081  -18.4411 C   0  0  0  0  0  0  0  0  0  0  0  0
   -7.1134    4.7211  -18.1163 C   0  0  0  0  0  0  0  0  0  0  0  0
   -6.2090    4.8662  -19.0904 N   0  0  0  0  0  0  0  0  0  0  0  0
  2  1  1  1
  2  3  1  0
  2  4  1  0
  4  5  1  0
  5  6  1  0
  6  7  2  0
  7  8  1  0
  8  9  2  0
  9 10  1  0
 10 11  2  0
 11 12  1  0
 12 13  2  0
 13 14  1  0
 14 15  2  0
 15  6  1  0
 14  9  1  0
M  END
>  <tags>  (114) 
openbind_xx01zvns2b_c1_knitwork_impure,fragmenstein_placed,openbind_xx01zvns2b_c1_scaffolds_chemok_bbok,BulkDock Fragalysis export,openbind_xx01zvns2b_c1_scaffolds

>  <placement_batch>  (114) 
openbind_xx01zvns2b_c1_knitwork_impure

>  <inspiration_score>  (114) 
None

>  <name>  (114) 
P58294

>  <HIPPO Pose ID>  (114) 
58294

>  <ref_pdb>  (114) 
Z1688a

>  <inchikey>  (114) 
AYPYZMLAXJVAGD-UHFFFAOYSA-N

>  <alias>  (114) 
None

>  <ref_mols>  (114) 
Z1688a,Z0089a

>  <subsites>  (114) 
1 - Z4590/B/203/1

>  <distance_score>  (114) 
0.961999

>  <HIPPO Compound ID>  (114) 
65272

>  <smiles>  (114) 
C[C@@H](Cl)CNc1ccc2ccccc2n1

>  <energy_score>  (114) 
-13.712265

$$$$
P58306
     RDKit          3D

 21 23  0  0  0  0  0  0  0  0999 V2000
   -8.2659    7.4320   -8.5807 C   0  0  0  0  0  0  0  0  0  0  0  0
   -6.9474    7.7881   -9.0469 N   0  0  0  0  0  0  0  0  0  0  0  0
   -5.9743    8.3688   -8.2837 C   0  0  0  0  0  0  0  0  0  0  0  0
   -4.8798    8.5848   -8.9770 N   0  0  0  0  0  0  0  0  0  0  0  0
   -5.1565    8.1244  -10.2362 C   0  0  0  0  0  0  0  0  0  0  0  0
   -6.4388    7.6186  -10.3135 C   0  0  0  0  0  0  0  0  0  0  0  0
   -7.1823    7.0205  -11.4547 C   0  0  0  0  0  0  0  0  0  0  0  0
   -7.0163    5.5081  -11.5163 C   0  0  0  0  0  0  0  0  0  0  0  0
   -7.8759    4.9900  -12.6523 C   0  0  0  0  0  0  0  0  0  0  0  0
   -8.9800    4.6540  -12.4922 O   0  0  0  0  0  0  0  0  0  0  0  0
   -7.0400    5.1033  -13.9508 N   0  0  0  0  0  0  0  0  0  0  0  0
   -7.4067    4.9238  -15.2761 C   0  0  0  0  0  0  0  0  0  0  0  0
   -8.6737    4.4860  -15.6566 C   0  0  0  0  0  0  0  0  0  0  0  0
   -9.0200    4.3263  -17.0187 C   0  0  0  0  0  0  0  0  0  0  0  0
   -8.1027    4.6095  -18.0332 C   0  0  0  0  0  0  0  0  0  0  0  0
   -6.8649    5.0484  -17.6308 C   0  0  0  0  0  0  0  0  0  0  0  0
   -5.7690    5.4341  -18.3952 N   0  0  0  0  0  0  0  0  0  0  0  0
   -4.7409    5.8211  -17.5296 C   0  0  0  0  0  0  0  0  0  0  0  0
   -3.6310    6.2307  -17.8110 O   0  0  0  0  0  0  0  0  0  0  0  0
   -5.2196    5.6747  -16.2263 N   0  0  0  0  0  0  0  0  0  0  0  0
   -6.5230    5.1980  -16.2880 C   0  0  0  0  0  0  0  0  0  0  0  0
  1  2  1  0
  2  3  1  0
  3  4  2  0
  4  5  1  0
  5  6  2  0
  6  7  1  0
  7  8  1  0
  8  9  1  0
  9 10  2  0
  9 11  1  0
 11 12  1  0
 12 13  2  0
 13 14  1  0
 14 15  2  0
 15 16  1  0
 16 17  1  0
 17 18  1  0
 18 19  2  0
 18 20  1  0
 20 21  1  0
  6  2  1  0
 21 12  1  0
 21 16  2  0
M  END
>  <tags>  (115) 
openbind_xx01zvns2b_c1_knitwork_impure,fragmenstein_placed,openbind_xx01zvns2b_c1_scaffolds_chemok_bbok,BulkDock Fragalysis export,openbind_xx01zvns2b_c1_scaffolds

>  <placement_batch>  (115) 
openbind_xx01zvns2b_c1_knitwork_impure

>  <inspiration_score>  (115) 
None

>  <name>  (115) 
P58306

>  <HIPPO Pose ID>  (115) 
58306

>  <ref_pdb>  (115) 
Z1688a

>  <inchikey>  (115) 
SKDJHYMDJKHBLX-UHFFFAOYSA-N

>  <alias>  (115) 
None

>  <ref_mols>  (115) 
Z1688a,Z4245a

>  <subsites>  (115) 
1 - Z4590/B/203/1

>  <distance_score>  (115) 
0.996317

>  <HIPPO Compound ID>  (115) 
68073

>  <smiles>  (115) 
Cn1cncc1CCC(=O)Nc1cccc2[nH]c(=O)[nH]c12

>  <energy_score>  (115) 
-28.900219

$$$$
P58460
     RDKit          3D

 15 15  0  0  0  0  0  0  0  0999 V2000
   -8.7213    4.8158  -16.1049 C   0  0  0  0  0  0  0  0  0  0  0  0
   -7.2440    4.5188  -15.8748 C   0  0  2  0  0  0  0  0  0  0  0  0
   -6.7663    5.0422  -14.5251 C   0  0  0  0  0  0  0  0  0  0  0  0
   -6.0006    5.9167  -14.4176 O   0  0  0  0  0  0  0  0  0  0  0  0
   -7.4860    4.1939  -13.4374 N   0  0  0  0  0  0  0  0  0  0  0  0
   -7.3347    4.1887  -11.9955 C   0  0  0  0  0  0  0  0  0  0  0  0
   -8.0821    3.0245  -11.3554 C   0  0  0  0  0  0  0  0  0  0  0  0
   -7.9556    3.0622   -9.8356 C   0  0  0  0  0  0  0  0  0  0  0  0
   -8.3812    4.3488   -9.2834 N   0  0  0  0  0  0  0  0  0  0  0  0
   -7.6551    5.4732   -9.8629 C   0  0  0  0  0  0  0  0  0  0  0  0
   -7.7838    5.5137  -11.3824 C   0  0  0  0  0  0  0  0  0  0  0  0
   -6.3679    5.0881  -16.9743 C   0  0  0  0  0  0  0  0  0  0  0  0
   -5.0905    4.6521  -16.8579 F   0  0  0  0  0  0  0  0  0  0  0  0
   -6.3416    6.4355  -17.0088 F   0  0  0  0  0  0  0  0  0  0  0  0
   -6.8101    4.6739  -18.1871 F   0  0  0  0  0  0  0  0  0  0  0  0
  2  1  1  6
  2  3  1  0
  3  4  2  0
  3  5  1  0
  5  6  1  0
  6  7  1  0
  7  8  1  0
  8  9  1  0
  9 10  1  0
 10 11  1  0
  2 12  1  0
 12 13  1  0
 12 14  1  0
 12 15  1  0
 11  6  1  0
M  END
>  <tags>  (116) 
openbind_xx01zvns2b_c1_knitwork_impure,BulkDock Fragalysis export,fragmenstein_placed,openbind_xx01zvns2b_c1_scaffolds

>  <placement_batch>  (116) 
openbind_xx01zvns2b_c1_knitwork_impure

>  <inspiration_score>  (116) 
None

>  <name>  (116) 
P58460

>  <HIPPO Pose ID>  (116) 
58460

>  <ref_pdb>  (116) 
Z0182a

>  <inchikey>  (116) 
OXVIOBPBNGFJJG-UHFFFAOYSA-N

>  <alias>  (116) 
None

>  <ref_mols>  (116) 
Z0182a,Z1597a

>  <subsites>  (116) 
1 - Z4590/B/203/1

>  <distance_score>  (116) 
0.838488

>  <HIPPO Compound ID>  (116) 
68277

>  <smiles>  (116) 
C[C@H](C(=O)NC1CCNCC1)C(F)(F)F

>  <energy_score>  (116) 
-12.647708

$$$$
P58504
     RDKit          3D

 13 14  0  0  0  0  0  0  0  0999 V2000
   -2.2759    4.3282  -19.1483 C   0  0  0  0  0  0  0  0  0  0  0  0
   -2.7299    5.7814  -19.1342 C   0  0  2  0  0  0  0  0  0  0  0  0
   -2.4209    6.4334  -17.8626 N   0  0  0  0  0  0  0  0  0  0  0  0
   -4.1930    5.9845  -19.5519 C   0  0  0  0  0  0  0  0  0  0  0  0
   -5.2964    5.2731  -18.8069 C   0  0  0  0  0  0  0  0  0  0  0  0
   -6.2360    4.7211  -19.5916 N   0  0  0  0  0  0  0  0  0  0  0  0
   -7.4123    4.3349  -19.0626 C   0  0  0  0  0  0  0  0  0  0  0  0
   -7.6286    4.4617  -17.7010 C   0  0  0  0  0  0  0  0  0  0  0  0
   -8.7503    4.1756  -16.8620 C   0  0  0  0  0  0  0  0  0  0  0  0
   -8.4702    4.4122  -15.5357 C   0  0  0  0  0  0  0  0  0  0  0  0
   -6.8878    5.0214  -15.3104 S   0  0  0  0  0  0  0  0  0  0  0  0
   -6.5567    4.9656  -16.9808 C   0  0  0  0  0  0  0  0  0  0  0  0
   -5.3787    5.4046  -17.4730 N   0  0  0  0  0  0  0  0  0  0  0  0
  2  1  1  1
  2  3  1  0
  2  4  1  0
  4  5  1  0
  5  6  2  0
  6  7  1  0
  7  8  2  0
  8  9  1  0
  9 10  2  0
 10 11  1  0
 11 12  1  0
 12 13  2  0
 13  5  1  0
 12  8  1  0
M  END
>  <tags>  (117) 
openbind_xx01zvns2b_c1_knitwork_impure,fragmenstein_placed,openbind_xx01zvns2b_c1_scaffolds_chemok_bbok,BulkDock Fragalysis export,openbind_xx01zvns2b_c1_scaffolds

>  <placement_batch>  (117) 
openbind_xx01zvns2b_c1_knitwork_impure

>  <inspiration_score>  (117) 
None

>  <name>  (117) 
P58504

>  <HIPPO Pose ID>  (117) 
58504

>  <ref_pdb>  (117) 
Z0089a

>  <inchikey>  (117) 
INQNRECOIDXECF-UHFFFAOYSA-N

>  <alias>  (117) 
None

>  <ref_mols>  (117) 
Z1719a,Z0089a

>  <subsites>  (117) 
1 - Z4590/B/203/1

>  <distance_score>  (117) 
0.774919

>  <HIPPO Compound ID>  (117) 
68339

>  <smiles>  (117) 
C[C@H](N)Cc1ncc2ccsc2n1

>  <energy_score>  (117) 
-26.573384

$$$$
P58509
     RDKit          3D

 13 14  0  0  0  0  0  0  0  0999 V2000
   -2.2782    4.3369  -19.0385 C   0  0  0  0  0  0  0  0  0  0  0  0
   -2.9704    5.6476  -19.3722 C   0  0  0  0  0  0  0  0  0  0  0  0
   -2.7429    6.7142  -18.3124 C   0  0  0  0  0  0  0  0  0  0  0  0
   -4.3662    5.4790  -19.7088 N   0  0  0  0  0  0  0  0  0  0  0  0
   -5.3980    5.0799  -18.8976 C   0  0  0  0  0  0  0  0  0  0  0  0
   -6.4357    4.6228  -19.6047 N   0  0  0  0  0  0  0  0  0  0  0  0
   -7.6014    4.3305  -19.0006 C   0  0  0  0  0  0  0  0  0  0  0  0
   -7.7070    4.4530  -17.6283 C   0  0  0  0  0  0  0  0  0  0  0  0
   -8.7781    4.2302  -16.7097 C   0  0  0  0  0  0  0  0  0  0  0  0
   -8.3835    4.4350  -15.4077 C   0  0  0  0  0  0  0  0  0  0  0  0
   -6.7527    4.9434  -15.3018 S   0  0  0  0  0  0  0  0  0  0  0  0
   -6.5480    4.8689  -16.9920 C   0  0  0  0  0  0  0  0  0  0  0  0
   -5.3769    5.2048  -17.5715 N   0  0  0  0  0  0  0  0  0  0  0  0
  1  2  1  0
  2  3  1  0
  2  4  1  0
  4  5  1  0
  5  6  2  0
  6  7  1  0
  7  8  2  0
  8  9  1  0
  9 10  2  0
 10 11  1  0
 11 12  1  0
 12 13  2  0
 13  5  1  0
 12  8  1  0
M  END
>  <tags>  (118) 
openbind_xx01zvns2b_c1_knitwork_impure,BulkDock Fragalysis export,fragmenstein_placed,openbind_xx01zvns2b_c1_scaffolds

>  <placement_batch>  (118) 
openbind_xx01zvns2b_c1_knitwork_impure

>  <inspiration_score>  (118) 
None

>  <name>  (118) 
P58509

>  <HIPPO Pose ID>  (118) 
58509

>  <ref_pdb>  (118) 
Z0089a

>  <inchikey>  (118) 
RDSLFWXGEZYMRJ-UHFFFAOYSA-N

>  <alias>  (118) 
None

>  <ref_mols>  (118) 
Z1719a,Z0089a

>  <subsites>  (118) 
1 - Z4590/B/203/1

>  <distance_score>  (118) 
0.727353

>  <HIPPO Compound ID>  (118) 
68349

>  <smiles>  (118) 
CC(C)Nc1ncc2ccsc2n1

>  <energy_score>  (118) 
-47.73848

$$$$
P58511
     RDKit          3D

 13 14  0  0  0  0  0  0  0  0999 V2000
   -2.9849    4.4604  -15.5696 C   0  0  0  0  0  0  0  0  0  0  0  0
   -3.7846    5.4550  -16.4305 C   0  0  0  0  0  0  0  0  0  0  0  0
   -3.3066    5.3333  -17.8940 C   0  0  0  0  0  0  0  0  0  0  0  0
   -3.4394    6.8266  -15.9777 N   0  0  0  0  0  0  0  0  0  0  0  0
   -5.2746    5.2043  -16.1847 C   0  0  0  0  0  0  0  0  0  0  0  0
   -5.7089    5.3055  -14.8779 N   0  0  0  0  0  0  0  0  0  0  0  0
   -7.0042    5.0721  -14.5949 C   0  0  0  0  0  0  0  0  0  0  0  0
   -7.9826    4.7701  -15.4498 N   0  0  0  0  0  0  0  0  0  0  0  0
   -7.5309    4.6742  -16.7114 C   0  0  0  0  0  0  0  0  0  0  0  0
   -8.5549    4.2568  -18.0094 S   0  0  0  0  0  0  0  0  0  0  0  0
   -7.2171    4.3970  -19.0686 C   0  0  0  0  0  0  0  0  0  0  0  0
   -6.0661    4.7364  -18.5288 N   0  0  0  0  0  0  0  0  0  0  0  0
   -6.2322    4.8814  -17.1621 C   0  0  0  0  0  0  0  0  0  0  0  0
  1  2  1  0
  2  3  1  0
  2  4  1  0
  2  5  1  0
  5  6  2  0
  6  7  1  0
  7  8  2  0
  8  9  1  0
  9 10  1  0
 10 11  1  0
 11 12  2  0
 12 13  1  0
 13  5  1  0
 13  9  2  0
M  END
>  <tags>  (119) 
openbind_xx01zvns2b_c1_knitwork_impure,BulkDock Fragalysis export,fragmenstein_placed,openbind_xx01zvns2b_c1_scaffolds

>  <placement_batch>  (119) 
openbind_xx01zvns2b_c1_knitwork_impure

>  <inspiration_score>  (119) 
None

>  <name>  (119) 
P58511

>  <HIPPO Pose ID>  (119) 
58511

>  <ref_pdb>  (119) 
Z0089a

>  <inchikey>  (119) 
MBTBHVMVVGWRDZ-UHFFFAOYSA-N

>  <alias>  (119) 
None

>  <ref_mols>  (119) 
Z1719a,Z0089a

>  <subsites>  (119) 
1 - Z4590/B/203/1

>  <distance_score>  (119) 
0.985067

>  <HIPPO Compound ID>  (119) 
68352

>  <smiles>  (119) 
CC(C)(N)c1ncnc2scnc12

>  <energy_score>  (119) 
-63.085673

$$$$
P58512
     RDKit          3D

 14 15  0  0  0  0  0  0  0  0999 V2000
   -3.4164    7.0478  -18.4167 C   0  0  0  0  0  0  0  0  0  0  0  0
   -2.9794    5.6491  -18.0184 C   0  0  0  0  0  0  0  0  0  0  0  0
   -3.0200    4.6689  -19.1770 C   0  0  0  0  0  0  0  0  0  0  0  0
   -3.5899    5.1598  -16.7797 N   0  0  0  0  0  0  0  0  0  0  0  0
   -4.9182    5.1022  -16.3905 C   0  0  0  0  0  0  0  0  0  0  0  0
   -5.0565    5.2020  -15.0449 N   0  0  0  0  0  0  0  0  0  0  0  0
   -6.2922    5.0678  -14.5450 C   0  0  0  0  0  0  0  0  0  0  0  0
   -7.4028    4.8492  -15.2457 N   0  0  0  0  0  0  0  0  0  0  0  0
   -7.2391    4.7332  -16.5688 C   0  0  0  0  0  0  0  0  0  0  0  0
   -8.3519    4.4446  -17.3415 C   0  0  0  0  0  0  0  0  0  0  0  0
   -8.2477    4.3196  -18.7192 C   0  0  0  0  0  0  0  0  0  0  0  0
   -7.0049    4.4945  -19.2838 C   0  0  0  0  0  0  0  0  0  0  0  0
   -5.9013    4.7896  -18.5775 N   0  0  0  0  0  0  0  0  0  0  0  0
   -6.0073    4.8807  -17.2336 C   0  0  0  0  0  0  0  0  0  0  0  0
  1  2  1  0
  2  3  1  0
  2  4  1  0
  4  5  1  0
  5  6  2  0
  6  7  1  0
  7  8  2  0
  8  9  1  0
  9 10  2  0
 10 11  1  0
 11 12  2  0
 12 13  1  0
 13 14  2  0
 14  5  1  0
 14  9  1  0
M  END
>  <tags>  (120) 
openbind_xx01zvns2b_c1_knitwork_impure,BulkDock Fragalysis export,fragmenstein_placed,openbind_xx01zvns2b_c1_scaffolds

>  <placement_batch>  (120) 
openbind_xx01zvns2b_c1_knitwork_impure

>  <inspiration_score>  (120) 
None

>  <name>  (120) 
P58512

>  <HIPPO Pose ID>  (120) 
58512

>  <ref_pdb>  (120) 
Z0089a

>  <inchikey>  (120) 
QHZGYBQPBOYXJU-UHFFFAOYSA-N

>  <alias>  (120) 
None

>  <ref_mols>  (120) 
Z1719a,Z0089a

>  <subsites>  (120) 
1 - Z4590/B/203/1

>  <distance_score>  (120) 
0.956118

>  <HIPPO Compound ID>  (120) 
68354

>  <smiles>  (120) 
CC(C)Nc1ncnc2cccnc12

>  <energy_score>  (120) 
-17.626574

$$$$
P58520
     RDKit          3D

  9  9  0  0  0  0  0  0  0  0999 V2000
   -9.2928    4.0886  -16.8280 C   0  0  0  0  0  0  0  0  0  0  0  0
   -8.4183    4.8214  -15.8109 C   0  0  1  0  0  0  0  0  0  0  0  0
   -8.8477    4.5338  -14.4331 N   0  0  0  0  0  0  0  0  0  0  0  0
   -6.9249    4.5169  -15.9609 C   0  0  0  0  0  0  0  0  0  0  0  0
   -6.3078    4.8814  -17.2585 C   0  0  0  0  0  0  0  0  0  0  0  0
   -6.6110    4.7562  -18.5969 C   0  0  0  0  0  0  0  0  0  0  0  0
   -5.5768    5.2373  -19.3580 N   0  0  0  0  0  0  0  0  0  0  0  0
   -4.6954    5.6254  -18.4746 C   0  0  0  0  0  0  0  0  0  0  0  0
   -5.0595    5.4453  -17.1802 O   0  0  0  0  0  0  0  0  0  0  0  0
  2  1  1  6
  2  3  1  0
  2  4  1  0
  4  5  1  0
  5  6  2  0
  6  7  1  0
  7  8  2  0
  8  9  1  0
  9  5  1  0
M  END
>  <tags>  (121) 
openbind_xx01zvns2b_c1_knitwork_impure,fragmenstein_placed,openbind_xx01zvns2b_c1_scaffolds_chemok_bbok,BulkDock Fragalysis export,openbind_xx01zvns2b_c1_scaffolds

>  <placement_batch>  (121) 
openbind_xx01zvns2b_c1_knitwork_impure

>  <inspiration_score>  (121) 
None

>  <name>  (121) 
P58520

>  <HIPPO Pose ID>  (121) 
58520

>  <ref_pdb>  (121) 
Z0089a

>  <inchikey>  (121) 
YHALNVPVBADKEB-UHFFFAOYSA-N

>  <alias>  (121) 
None

>  <ref_mols>  (121) 
Z1719a,Z0089a

>  <subsites>  (121) 
1 - Z4590/B/203/1

>  <distance_score>  (121) 
0.985327

>  <HIPPO Compound ID>  (121) 
58916

>  <smiles>  (121) 
C[C@@H](N)Cc1cnco1

>  <energy_score>  (121) 
-15.914958

$$$$
P58573
     RDKit          3D

 18 20  0  0  0  0  0  0  0  0999 V2000
   -9.3167    8.3126  -12.7188 O   0  0  0  0  0  0  0  0  0  0  0  0
   -8.5250    7.9884  -11.9299 C   0  0  0  0  0  0  0  0  0  0  0  0
   -7.5664    8.8333  -11.0737 N   0  0  0  0  0  0  0  0  0  0  0  0
   -7.3142   10.2445  -11.0759 C   0  0  0  0  0  0  0  0  0  0  0  0
   -7.5872   10.7587   -9.7158 C   0  0  0  0  0  0  0  0  0  0  0  0
   -8.7304   11.2093   -9.0876 C   0  0  0  0  0  0  0  0  0  0  0  0
   -8.3503   11.5592   -7.7699 C   0  0  0  0  0  0  0  0  0  0  0  0
   -7.0040   11.2957   -7.6766 C   0  0  0  0  0  0  0  0  0  0  0  0
   -6.5314   10.8059   -8.8517 O   0  0  0  0  0  0  0  0  0  0  0  0
   -8.3124    6.5448  -11.5877 C   0  0  0  0  0  0  0  0  0  0  0  0
   -8.1891    5.5450  -12.6479 C   0  0  0  0  0  0  0  0  0  0  0  0
   -8.0698    4.2332  -12.3650 C   0  0  0  0  0  0  0  0  0  0  0  0
   -8.0658    3.8062  -11.0089 C   0  0  0  0  0  0  0  0  0  0  0  0
   -7.9262    2.6168  -10.4767 N   0  0  0  0  0  0  0  0  0  0  0  0
   -8.0555    2.7960   -9.1235 C   0  0  0  0  0  0  0  0  0  0  0  0
   -8.2353    4.1265   -8.8215 C   0  0  0  0  0  0  0  0  0  0  0  0
   -8.2285    4.7759  -10.0290 N   0  0  0  0  0  0  0  0  0  0  0  0
   -8.3513    6.1338  -10.3046 C   0  0  0  0  0  0  0  0  0  0  0  0
  1  2  2  0
  2  3  1  0
  3  4  1  0
  4  5  1  0
  5  6  2  0
  6  7  1  0
  7  8  2  0
  8  9  1  0
  2 10  1  0
 10 11  1  0
 11 12  2  0
 12 13  1  0
 13 14  2  0
 14 15  1  0
 15 16  2  0
 16 17  1  0
 17 18  1  0
  9  5  1  0
 18 10  2  0
 17 13  1  0
M  END
>  <tags>  (122) 
openbind_xx01zvns2b_c1_knitwork_impure,fragmenstein_placed,openbind_xx01zvns2b_c1_scaffolds_chemok_bbok,BulkDock Fragalysis export,openbind_xx01zvns2b_c1_scaffolds

>  <placement_batch>  (122) 
openbind_xx01zvns2b_c1_knitwork_impure

>  <inspiration_score>  (122) 
None

>  <name>  (122) 
P58573

>  <HIPPO Pose ID>  (122) 
58573

>  <ref_pdb>  (122) 
Z1495a

>  <inchikey>  (122) 
WXXDZQWIJVIEAB-UHFFFAOYSA-N

>  <alias>  (122) 
None

>  <ref_mols>  (122) 
Z0422a,Z1495a

>  <subsites>  (122) 
1 - Z4590/B/203/1

>  <distance_score>  (122) 
0.521818

>  <HIPPO Compound ID>  (122) 
68434

>  <smiles>  (122) 
O=C(NCc1ccco1)c1ccc2nccn2c1

>  <energy_score>  (122) 
-8.563448

$$$$
P58576
     RDKit          3D

 19 21  0  0  0  0  0  0  0  0999 V2000
   -9.3774    8.3891  -12.5083 O   0  0  0  0  0  0  0  0  0  0  0  0
   -8.6086    8.0714  -11.6947 C   0  0  0  0  0  0  0  0  0  0  0  0
   -7.7320    8.9255  -10.7636 N   0  0  0  0  0  0  0  0  0  0  0  0
   -7.5471   10.3467  -10.7026 C   0  0  0  0  0  0  0  0  0  0  0  0
   -6.3345   10.6867  -11.4798 C   0  0  0  0  0  0  0  0  0  0  0  0
   -6.1041   10.9167  -12.8209 C   0  0  0  0  0  0  0  0  0  0  0  0
   -4.7201   11.1834  -12.9480 C   0  0  0  0  0  0  0  0  0  0  0  0
   -4.1950   11.0968  -11.6801 C   0  0  0  0  0  0  0  0  0  0  0  0
   -5.1668   10.7940  -10.7812 O   0  0  0  0  0  0  0  0  0  0  0  0
   -8.3120    6.6312  -11.4216 C   0  0  0  0  0  0  0  0  0  0  0  0
   -7.9168    5.7472  -12.5105 C   0  0  0  0  0  0  0  0  0  0  0  0
   -7.6836    4.4354  -12.3058 C   0  0  0  0  0  0  0  0  0  0  0  0
   -7.0440    3.3367  -13.6644 Br  0  0  0  0  0  0  0  0  0  0  0  0
   -7.8656    3.8816  -11.0024 C   0  0  0  0  0  0  0  0  0  0  0  0
   -7.7244    2.6623  -10.5306 N   0  0  0  0  0  0  0  0  0  0  0  0
   -8.0439    2.7314   -9.1993 C   0  0  0  0  0  0  0  0  0  0  0  0
   -8.3580    4.0211   -8.8405 C   0  0  0  0  0  0  0  0  0  0  0  0
   -8.2487    4.7570   -9.9919 N   0  0  0  0  0  0  0  0  0  0  0  0
   -8.4642    6.1182  -10.1871 C   0  0  0  0  0  0  0  0  0  0  0  0
  1  2  2  0
  2  3  1  0
  3  4  1  0
  4  5  1  0
  5  6  2  0
  6  7  1  0
  7  8  2  0
  8  9  1  0
  2 10  1  0
 10 11  1  0
 11 12  2  0
 12 13  1  0
 12 14  1  0
 14 15  2  0
 15 16  1  0
 16 17  2  0
 17 18  1  0
 18 19  1  0
  9  5  1  0
 19 10  2  0
 18 14  1  0
M  END
>  <tags>  (123) 
openbind_xx01zvns2b_c1_knitwork_impure,BulkDock Fragalysis export,fragmenstein_placed,openbind_xx01zvns2b_c1_scaffolds

>  <placement_batch>  (123) 
openbind_xx01zvns2b_c1_knitwork_impure

>  <inspiration_score>  (123) 
None

>  <name>  (123) 
P58576

>  <HIPPO Pose ID>  (123) 
58576

>  <ref_pdb>  (123) 
Z1495a

>  <inchikey>  (123) 
MUMVNMUCHURAAO-UHFFFAOYSA-N

>  <alias>  (123) 
None

>  <ref_mols>  (123) 
Z0422a,Z1495a

>  <subsites>  (123) 
1 - Z4590/B/203/1

>  <distance_score>  (123) 
0.69994

>  <HIPPO Compound ID>  (123) 
68438

>  <smiles>  (123) 
O=C(NCc1ccco1)c1cc(Br)c2nccn2c1

>  <energy_score>  (123) 
-19.04382

$$$$
P58579
     RDKit          3D

 22 24  0  0  0  0  0  0  0  0999 V2000
   -6.9939    8.1555  -13.2049 O   0  0  0  0  0  0  0  0  0  0  0  0
   -7.9236    7.8576  -12.5714 C   0  0  0  0  0  0  0  0  0  0  0  0
   -9.1958    8.6529  -12.2329 N   0  0  0  0  0  0  0  0  0  0  0  0
   -9.5499   10.0145  -12.5231 C   0  0  0  0  0  0  0  0  0  0  0  0
  -10.4882   10.5276  -11.5055 C   0  0  0  0  0  0  0  0  0  0  0  0
  -10.3236   11.3061  -10.3792 C   0  0  0  0  0  0  0  0  0  0  0  0
  -11.6122   11.4796   -9.8239 C   0  0  0  0  0  0  0  0  0  0  0  0
  -12.4781   10.7870  -10.6359 C   0  0  0  0  0  0  0  0  0  0  0  0
  -11.8071   10.2094  -11.6659 O   0  0  0  0  0  0  0  0  0  0  0  0
   -8.0655    6.4775  -12.0044 C   0  0  0  0  0  0  0  0  0  0  0  0
   -8.0379    5.3262  -12.9043 C   0  0  0  0  0  0  0  0  0  0  0  0
   -8.1274    4.0662  -12.4384 C   0  0  0  0  0  0  0  0  0  0  0  0
   -8.2491    3.8412  -11.0409 C   0  0  0  0  0  0  0  0  0  0  0  0
   -8.3665    2.7320  -10.3525 N   0  0  0  0  0  0  0  0  0  0  0  0
   -8.4449    3.1040   -9.0191 C   0  0  0  0  0  0  0  0  0  0  0  0
   -8.5944    2.0957   -7.9141 C   0  0  0  0  0  0  0  0  0  0  0  0
   -7.6464    1.1325   -7.9522 F   0  0  0  0  0  0  0  0  0  0  0  0
   -9.8087    1.4855   -7.9185 F   0  0  0  0  0  0  0  0  0  0  0  0
   -8.4910    2.7010   -6.6936 F   0  0  0  0  0  0  0  0  0  0  0  0
   -8.3527    4.4864   -8.9245 C   0  0  0  0  0  0  0  0  0  0  0  0
   -8.2490    4.9536  -10.2103 N   0  0  0  0  0  0  0  0  0  0  0  0
   -8.1565    6.2659  -10.6763 C   0  0  0  0  0  0  0  0  0  0  0  0
  1  2  2  0
  2  3  1  0
  3  4  1  0
  4  5  1  0
  5  6  2  0
  6  7  1  0
  7  8  2  0
  8  9  1  0
  2 10  1  0
 10 11  1  0
 11 12  2  0
 12 13  1  0
 13 14  2  0
 14 15  1  0
 15 16  1  0
 16 17  1  0
 16 18  1  0
 16 19  1  0
 15 20  2  0
 20 21  1  0
 21 22  1  0
  9  5  1  0
 22 10  2  0
 21 13  1  0
M  END
>  <tags>  (124) 
openbind_xx01zvns2b_c1_knitwork_impure,fragmenstein_placed,openbind_xx01zvns2b_c1_scaffolds_chemok_bbok,BulkDock Fragalysis export,openbind_xx01zvns2b_c1_scaffolds

>  <placement_batch>  (124) 
openbind_xx01zvns2b_c1_knitwork_impure

>  <inspiration_score>  (124) 
None

>  <name>  (124) 
P58579

>  <HIPPO Pose ID>  (124) 
58579

>  <ref_pdb>  (124) 
Z1495a

>  <inchikey>  (124) 
ISZUVNJIJIFOOP-UHFFFAOYSA-N

>  <alias>  (124) 
None

>  <ref_mols>  (124) 
Z0422a,Z1495a

>  <subsites>  (124) 
1 - Z4590/B/203/1

>  <distance_score>  (124) 
0.298139

>  <HIPPO Compound ID>  (124) 
68443

>  <smiles>  (124) 
O=C(NCc1ccco1)c1ccc2nc(C(F)(F)F)cn2c1

>  <energy_score>  (124) 
-18.017494

$$$$
P58636
     RDKit          3D

 19 19  0  0  0  0  0  0  0  0999 V2000
   -7.0200    2.6225  -12.7771 C   0  0  0  0  0  0  0  0  0  0  0  0
   -5.5351    2.5027  -13.0604 C   0  0  2  0  0  0  0  0  0  0  0  0
   -4.6344    2.3888  -11.8402 C   0  0  0  0  0  0  0  0  0  0  0  0
   -4.7692    3.5232  -10.8542 C   0  0  0  0  0  0  0  0  0  0  0  0
   -4.5499    4.7225  -11.4396 F   0  0  0  0  0  0  0  0  0  0  0  0
   -5.9871    3.5676  -10.2778 F   0  0  0  0  0  0  0  0  0  0  0  0
   -3.8615    3.3958   -9.8575 F   0  0  0  0  0  0  0  0  0  0  0  0
   -5.1012    3.5517  -13.9538 N   0  0  0  0  0  0  0  0  0  0  0  0
   -3.9704    3.5650  -15.0204 C   0  0  0  0  0  0  0  0  0  0  0  0
   -3.2705    2.7066  -15.3913 O   0  0  0  0  0  0  0  0  0  0  0  0
   -3.9549    4.9919  -15.6755 C   0  0  0  0  0  0  0  0  0  0  0  0
   -4.3016    5.9356  -14.7388 F   0  0  0  0  0  0  0  0  0  0  0  0
   -2.6702    5.3135  -16.0407 F   0  0  0  0  0  0  0  0  0  0  0  0
   -4.8979    5.0522  -16.8648 C   0  0  0  0  0  0  0  0  0  0  0  0
   -6.2862    4.9561  -16.6917 C   0  0  0  0  0  0  0  0  0  0  0  0
   -7.0997    4.9946  -17.8073 C   0  0  0  0  0  0  0  0  0  0  0  0
   -6.6262    5.1525  -19.0530 N   0  0  0  0  0  0  0  0  0  0  0  0
   -5.2959    5.2513  -19.2157 C   0  0  0  0  0  0  0  0  0  0  0  0
   -4.3989    5.2050  -18.1647 C   0  0  0  0  0  0  0  0  0  0  0  0
  2  1  1  1
  2  3  1  0
  3  4  1  0
  4  5  1  0
  4  6  1  0
  4  7  1  0
  2  8  1  0
  8  9  1  0
  9 10  2  0
  9 11  1  0
 11 12  1  0
 11 13  1  0
 11 14  1  0
 14 15  2  0
 15 16  1  0
 16 17  2  0
 17 18  1  0
 18 19  2  0
 19 14  1  0
M  END
>  <tags>  (125) 
openbind_xx01zvns2b_c1_knitwork_impure,BulkDock Fragalysis export,fragmenstein_placed,openbind_xx01zvns2b_c1_scaffolds

>  <placement_batch>  (125) 
openbind_xx01zvns2b_c1_knitwork_impure

>  <inspiration_score>  (125) 
None

>  <name>  (125) 
P58636

>  <HIPPO Pose ID>  (125) 
58636

>  <ref_pdb>  (125) 
Z0425a

>  <inchikey>  (125) 
PLXATFVWKFIJDB-UHFFFAOYSA-N

>  <alias>  (125) 
None

>  <ref_mols>  (125) 
Z0425a,Z0719a

>  <subsites>  (125) 
1 - Z4590/B/203/1

>  <distance_score>  (125) 
0.975258

>  <HIPPO Compound ID>  (125) 
64442

>  <smiles>  (125) 
C[C@H](CC(F)(F)F)NC(=O)C(F)(F)c1ccncc1

>  <energy_score>  (125) 
-3.733501

$$$$
P58645
     RDKit          3D

 13 14  0  0  0  0  0  0  0  0999 V2000
   -5.6892    5.5400  -18.9853 S   0  0  0  0  0  0  0  0  0  0  0  0
   -6.9574    5.1661  -17.9620 C   0  0  0  0  0  0  0  0  0  0  0  0
   -6.8612    5.3001  -16.4911 C   0  0  0  0  0  0  0  0  0  0  0  0
   -7.8969    4.9658  -15.7138 C   0  0  0  0  0  0  0  0  0  0  0  0
   -7.8889    5.1254  -14.2580 C   0  0  0  0  0  0  0  0  0  0  0  0
   -7.5021    6.3047  -13.6276 C   0  0  0  0  0  0  0  0  0  0  0  0
   -7.5811    6.3865  -12.2321 C   0  0  0  0  0  0  0  0  0  0  0  0
   -8.0267    5.2908  -11.5077 C   0  0  0  0  0  0  0  0  0  0  0  0
   -8.3770    4.1542  -12.2084 C   0  0  0  0  0  0  0  0  0  0  0  0
   -8.3275    4.0688  -13.5544 N   0  0  0  0  0  0  0  0  0  0  0  0
   -9.0527    4.3726  -16.4205 C   0  0  0  0  0  0  0  0  0  0  0  0
   -9.2082    4.3003  -17.7058 N   0  0  0  0  0  0  0  0  0  0  0  0
   -8.1688    4.7629  -18.4630 N   0  0  0  0  0  0  0  0  0  0  0  0
  1  2  2  0
  2  3  1  0
  3  4  2  0
  4  5  1  0
  5  6  2  0
  6  7  1  0
  7  8  2  0
  8  9  1  0
  9 10  2  0
  4 11  1  0
 11 12  2  0
 12 13  1  0
 13  2  1  0
 10  5  1  0
M  END
>  <tags>  (126) 
openbind_xx01zvns2b_c1_knitwork_impure,fragmenstein_placed,openbind_xx01zvns2b_c1_scaffolds_chemok_bbok,BulkDock Fragalysis export,openbind_xx01zvns2b_c1_scaffolds

>  <placement_batch>  (126) 
openbind_xx01zvns2b_c1_knitwork_impure

>  <inspiration_score>  (126) 
None

>  <name>  (126) 
P58645

>  <HIPPO Pose ID>  (126) 
58645

>  <ref_pdb>  (126) 
Z0852a

>  <inchikey>  (126) 
DQXRHZKSWUZQHA-UHFFFAOYSA-N

>  <alias>  (126) 
None

>  <ref_mols>  (126) 
Z1098a,Z0852a

>  <subsites>  (126) 
1 - Z4590/B/203/1

>  <distance_score>  (126) 
0.763712

>  <HIPPO Compound ID>  (126) 
62734

>  <smiles>  (126) 
S=c1cc(-c2ccccn2)cn[nH]1

>  <energy_score>  (126) 
-19.420867

$$$$
P58682
     RDKit          3D

 10 10  0  0  0  0  0  0  0  0999 V2000
   -0.9090    4.0987  -20.4097 C   0  0  0  0  0  0  0  0  0  0  0  0
   -1.7292    5.0483  -19.9444 C   0  0  0  0  0  0  0  0  0  0  0  0
   -2.7484    4.8597  -18.8643 C   0  0  0  0  0  0  0  0  0  0  0  0
   -4.0534    5.3580  -19.3141 N   0  0  0  0  0  0  0  0  0  0  0  0
   -5.0870    5.0196  -18.3264 N   0  0  0  0  0  0  0  0  0  0  0  0
   -4.8927    5.7890  -17.0844 C   0  0  0  0  0  0  0  0  0  0  0  0
   -6.1807    6.1517  -16.3424 C   0  0  0  0  0  0  0  0  0  0  0  0
   -7.2453    5.0833  -16.5114 C   0  0  0  0  0  0  0  0  0  0  0  0
   -7.5363    4.8333  -17.9899 C   0  0  0  0  0  0  0  0  0  0  0  0
   -6.4071    5.2831  -18.9208 C   0  0  0  0  0  0  0  0  0  0  0  0
  1  2  2  0
  2  3  1  0
  3  4  1  0
  4  5  1  0
  5  6  1  0
  6  7  1  0
  7  8  1  0
  8  9  1  0
  9 10  1  0
 10  5  1  0
M  END
>  <tags>  (127) 
openbind_xx01zvns2b_c1_knitwork_impure,fragmenstein_placed,openbind_xx01zvns2b_c1_scaffolds_chemok_bbok,BulkDock Fragalysis export,openbind_xx01zvns2b_c1_scaffolds

>  <placement_batch>  (127) 
openbind_xx01zvns2b_c1_knitwork_impure

>  <inspiration_score>  (127) 
None

>  <name>  (127) 
P58682

>  <HIPPO Pose ID>  (127) 
58682

>  <ref_pdb>  (127) 
Z0827a

>  <inchikey>  (127) 
RNKXPRBMXXNEQD-UHFFFAOYSA-N

>  <alias>  (127) 
None

>  <ref_mols>  (127) 
Z0827a,Z0089a

>  <subsites>  (127) 
1 - Z4590/B/203/1

>  <distance_score>  (127) 
0.795572

>  <HIPPO Compound ID>  (127) 
68603

>  <smiles>  (127) 
C=CCNN1CCCCC1

>  <energy_score>  (127) 
-19.334943

$$$$
P58724
     RDKit          3D

 15 18  0  0  0  0  0  0  0  0999 V2000
   -7.5821    4.5623  -14.7268 C   0  0  0  0  0  0  0  0  0  0  0  0
   -6.4313    5.0881  -15.2966 C   0  0  0  0  0  0  0  0  0  0  0  0
   -6.2338    5.2221  -16.6973 C   0  0  0  0  0  0  0  0  0  0  0  0
   -4.9993    5.9090  -17.2699 C   0  0  2  0  0  0  0  0  0  0  0  0
   -4.5460    5.6251  -18.6844 C   0  0  0  0  0  0  0  0  0  0  0  0
   -3.1132    5.9700  -18.7142 N   0  0  0  0  0  0  0  0  0  0  0  0
   -2.5808    5.7347  -17.3706 C   0  0  0  0  0  0  0  0  0  0  0  0
   -3.7369    6.0196  -16.4744 C   0  0  1  0  0  0  0  0  0  0  0  0
   -4.5986    7.2473  -16.6511 C   0  0  0  0  0  0  0  0  0  0  0  0
   -7.2980    4.7270  -17.4964 C   0  0  0  0  0  0  0  0  0  0  0  0
   -7.5003    4.6817  -18.8647 N   0  0  0  0  0  0  0  0  0  0  0  0
   -8.6947    4.0846  -19.1679 C   0  0  0  0  0  0  0  0  0  0  0  0
   -9.3297    3.7875  -17.9947 C   0  0  0  0  0  0  0  0  0  0  0  0
   -8.4643    4.1757  -16.9386 C   0  0  0  0  0  0  0  0  0  0  0  0
   -8.6078    4.1209  -15.5445 C   0  0  0  0  0  0  0  0  0  0  0  0
  1  2  2  0
  2  3  1  0
  4  3  1  1
  4  5  1  0
  5  6  1  0
  6  7  1  0
  8  7  1  6
  8  9  1  0
  3 10  2  0
 10 11  1  0
 11 12  1  0
 12 13  2  0
 13 14  1  0
 14 15  2  0
 15  1  1  0
  8  4  1  0
 14 10  1  0
  9  4  1  0
M  END
>  <tags>  (128) 
openbind_xx01zvns2b_c1_knitwork_impure,fragmenstein_placed,openbind_xx01zvns2b_c1_scaffolds_chemok_bbok,BulkDock Fragalysis export,openbind_xx01zvns2b_c1_scaffolds

>  <placement_batch>  (128) 
openbind_xx01zvns2b_c1_knitwork_impure

>  <inspiration_score>  (128) 
None

>  <name>  (128) 
P58724

>  <HIPPO Pose ID>  (128) 
58724

>  <ref_pdb>  (128) 
Z3729a

>  <inchikey>  (128) 
MMJDLLILUUJJBM-UHFFFAOYSA-N

>  <alias>  (128) 
None

>  <ref_mols>  (128) 
Z0917a,Z0182a,Z3729a

>  <subsites>  (128) 
1 - Z4590/B/203/1

>  <distance_score>  (128) 
0.722989

>  <HIPPO Compound ID>  (128) 
67862

>  <smiles>  (128) 
c1cc([C@]23CNC[C@H]2C3)c2[nH]ccc2c1

>  <energy_score>  (128) 
-14.066211

$$$$
P58742
     RDKit          3D

 19 21  0  0  0  0  0  0  0  0999 V2000
  -10.0732    4.9421  -17.4926 F   0  0  0  0  0  0  0  0  0  0  0  0
   -9.1254    4.5692  -18.4081 C   0  0  0  0  0  0  0  0  0  0  0  0
   -9.3935    3.2559  -18.6324 F   0  0  0  0  0  0  0  0  0  0  0  0
   -7.7549    4.7865  -17.8153 C   0  0  0  0  0  0  0  0  0  0  0  0
   -7.6552    4.4980  -16.4624 C   0  0  0  0  0  0  0  0  0  0  0  0
   -6.5040    4.8345  -15.7744 C   0  0  0  0  0  0  0  0  0  0  0  0
   -6.4334    4.6596  -14.3822 N   0  0  0  0  0  0  0  0  0  0  0  0
   -7.4133    5.5005  -13.6543 C   0  0  0  0  0  0  0  0  0  0  0  0
   -7.7543    5.0090  -12.2791 C   0  0  0  0  0  0  0  0  0  0  0  0
   -8.2036    3.7423  -11.9183 C   0  0  0  0  0  0  0  0  0  0  0  0
   -8.2872    3.7807  -10.5618 N   0  0  0  0  0  0  0  0  0  0  0  0
   -8.6071    2.9136   -9.5480 C   0  0  0  0  0  0  0  0  0  0  0  0
   -8.4579    3.4822   -8.3414 C   0  0  0  0  0  0  0  0  0  0  0  0
   -7.9289    5.1706   -8.4415 S   0  0  0  0  0  0  0  0  0  0  0  0
   -7.9161    5.0309  -10.1730 C   0  0  0  0  0  0  0  0  0  0  0  0
   -7.6135    5.8268  -11.1640 N   0  0  0  0  0  0  0  0  0  0  0  0
   -5.4368    5.3702  -16.4808 C   0  0  0  0  0  0  0  0  0  0  0  0
   -5.5862    5.5716  -17.8434 C   0  0  0  0  0  0  0  0  0  0  0  0
   -6.7264    5.3196  -18.5208 N   0  0  0  0  0  0  0  0  0  0  0  0
  1  2  1  0
  2  3  1  0
  2  4  1  0
  4  5  2  0
  5  6  1  0
  6  7  1  0
  7  8  1  0
  8  9  1  0
  9 10  2  0
 10 11  1  0
 11 12  1  0
 12 13  2  0
 13 14  1  0
 14 15  1  0
 15 16  2  0
  6 17  2  0
 17 18  1  0
 18 19  2  0
 19  4  1  0
 16  9  1  0
 15 11  1  0
M  END
>  <tags>  (129) 
openbind_xx01zvns2b_c1_knitwork_impure,BulkDock Fragalysis export,fragmenstein_placed,openbind_xx01zvns2b_c1_scaffolds

>  <placement_batch>  (129) 
openbind_xx01zvns2b_c1_knitwork_impure

>  <inspiration_score>  (129) 
None

>  <name>  (129) 
P58742

>  <HIPPO Pose ID>  (129) 
58742

>  <ref_pdb>  (129) 
Z0425a

>  <inchikey>  (129) 
UXUGLUIPIKFUBZ-UHFFFAOYSA-N

>  <alias>  (129) 
None

>  <ref_mols>  (129) 
Z0425a,Z1495a

>  <subsites>  (129) 
1 - Z4590/B/203/1

>  <distance_score>  (129) 
0.927016

>  <HIPPO Compound ID>  (129) 
68669

>  <smiles>  (129) 
FC(F)c1cc(NCc2cn3ccsc3n2)ccn1

>  <energy_score>  (129) 
-24.640287

$$$$
P58743
     RDKit          3D

 21 23  0  0  0  0  0  0  0  0999 V2000
   -9.9097    4.6723  -19.3152 C   0  0  0  0  0  0  0  0  0  0  0  0
  -10.4892    4.7563  -17.9400 C   0  0  0  0  0  0  0  0  0  0  0  0
   -9.3768    5.1954  -17.1620 O   0  0  0  0  0  0  0  0  0  0  0  0
   -8.6113    4.2243  -16.6782 C   0  0  0  0  0  0  0  0  0  0  0  0
   -9.0442    3.2307  -16.1425 O   0  0  0  0  0  0  0  0  0  0  0  0
   -7.2085    4.6310  -16.8243 C   0  0  0  0  0  0  0  0  0  0  0  0
   -6.6789    4.9720  -18.0651 C   0  0  0  0  0  0  0  0  0  0  0  0
   -5.4120    5.4160  -18.2530 N   0  0  0  0  0  0  0  0  0  0  0  0
   -4.6458    5.5027  -17.1504 C   0  0  0  0  0  0  0  0  0  0  0  0
   -5.0786    5.1539  -15.8802 C   0  0  0  0  0  0  0  0  0  0  0  0
   -6.3763    4.6709  -15.7111 C   0  0  0  0  0  0  0  0  0  0  0  0
   -6.7970    4.2847  -14.4272 N   0  0  0  0  0  0  0  0  0  0  0  0
   -7.5235    5.3312  -13.6857 C   0  0  0  0  0  0  0  0  0  0  0  0
   -7.8685    4.9208  -12.2859 C   0  0  0  0  0  0  0  0  0  0  0  0
   -8.2828    3.6632  -11.8590 C   0  0  0  0  0  0  0  0  0  0  0  0
   -8.3284    3.7546  -10.5065 N   0  0  0  0  0  0  0  0  0  0  0  0
   -8.5839    2.9158   -9.4514 C   0  0  0  0  0  0  0  0  0  0  0  0
   -8.4155    3.5362   -8.2734 C   0  0  0  0  0  0  0  0  0  0  0  0
   -7.9452    5.2361   -8.4555 S   0  0  0  0  0  0  0  0  0  0  0  0
   -7.9835    5.0303  -10.1806 C   0  0  0  0  0  0  0  0  0  0  0  0
   -7.7226    5.7918  -11.2113 N   0  0  0  0  0  0  0  0  0  0  0  0
  1  2  1  0
  2  3  1  0
  3  4  1  0
  4  5  2  0
  4  6  1  0
  6  7  2  0
  7  8  1  0
  8  9  2  0
  9 10  1  0
 10 11  2  0
 11 12  1  0
 12 13  1  0
 13 14  1  0
 14 15  2  0
 15 16  1  0
 16 17  1  0
 17 18  2  0
 18 19  1  0
 19 20  1  0
 20 21  2  0
 11  6  1  0
 21 14  1  0
 20 16  1  0
M  END
>  <tags>  (130) 
openbind_xx01zvns2b_c1_knitwork_impure,fragmenstein_placed,openbind_xx01zvns2b_c1_scaffolds_chemok_bbok,BulkDock Fragalysis export,openbind_xx01zvns2b_c1_scaffolds

>  <placement_batch>  (130) 
openbind_xx01zvns2b_c1_knitwork_impure

>  <inspiration_score>  (130) 
None

>  <name>  (130) 
P58743

>  <HIPPO Pose ID>  (130) 
58743

>  <ref_pdb>  (130) 
Z0425a

>  <inchikey>  (130) 
HVXRWVPZNNOFGT-UHFFFAOYSA-N

>  <alias>  (130) 
None

>  <ref_mols>  (130) 
Z0425a,Z1495a

>  <subsites>  (130) 
1 - Z4590/B/203/1

>  <distance_score>  (130) 
0.990368

>  <HIPPO Compound ID>  (130) 
68670

>  <smiles>  (130) 
CCOC(=O)c1cnccc1NCc1cn2ccsc2n1

>  <energy_score>  (130) 
-20.525951

$$$$
P58870
     RDKit          3D

 10 10  0  0  0  0  0  0  0  0999 V2000
   -9.6867    4.9211  -18.4007 N   0  0  0  0  0  0  0  0  0  0  0  0
   -8.5370    4.9133  -18.2377 C   0  0  0  0  0  0  0  0  0  0  0  0
   -7.1152    4.7742  -17.8394 C   0  0  2  0  0  0  0  0  0  0  0  0
   -6.9511    5.0648  -16.3918 N   0  0  0  0  0  0  0  0  0  0  0  0
   -6.1506    5.5754  -18.7394 C   0  0  1  0  0  0  0  0  0  0  0  0
   -6.3466    7.0876  -18.6106 C   0  0  0  0  0  0  0  0  0  0  0  0
   -5.3513    7.8317  -19.4863 C   0  0  0  0  0  0  0  0  0  0  0  0
   -3.9232    7.4091  -19.1623 C   0  0  0  0  0  0  0  0  0  0  0  0
   -3.7322    5.9672  -19.3102 N   0  0  0  0  0  0  0  0  0  0  0  0
   -4.6770    5.2126  -18.4759 C   0  0  0  0  0  0  0  0  0  0  0  0
  1  2  3  0
  2  3  1  0
  3  4  1  1
  3  5  1  0
  5  6  1  1
  6  7  1  0
  7  8  1  0
  8  9  1  0
  9 10  1  0
 10  5  1  0
M  END
>  <tags>  (131) 
openbind_xx01zvns2b_c1_knitwork_impure,BulkDock Fragalysis export,fragmenstein_placed,openbind_xx01zvns2b_c1_scaffolds

>  <placement_batch>  (131) 
openbind_xx01zvns2b_c1_knitwork_impure

>  <inspiration_score>  (131) 
None

>  <name>  (131) 
P58870

>  <HIPPO Pose ID>  (131) 
58870

>  <ref_pdb>  (131) 
Z0819a

>  <inchikey>  (131) 
AYDDAYAODJTCRB-UHFFFAOYSA-N

>  <alias>  (131) 
None

>  <ref_mols>  (131) 
Z0472a,Z0819a

>  <subsites>  (131) 
1 - Z4590/B/203/1

>  <distance_score>  (131) 
0.993948

>  <HIPPO Compound ID>  (131) 
68888

>  <smiles>  (131) 
N#C[C@H](N)[C@H]1CCCNC1

>  <energy_score>  (131) 
-14.729306

$$$$
P59099
     RDKit          3D

 24 27  0  0  0  0  0  0  0  0999 V2000
   -9.3553    3.0081   -5.2266 N   0  0  0  0  0  0  0  0  0  0  0  0
   -9.0094    3.2861   -6.4933 C   0  0  0  0  0  0  0  0  0  0  0  0
   -9.0627    2.3572   -7.5500 C   0  0  0  0  0  0  0  0  0  0  0  0
   -8.5853    3.0474   -8.6406 C   0  0  0  0  0  0  0  0  0  0  0  0
   -8.2842    4.2881   -8.1840 N   0  0  0  0  0  0  0  0  0  0  0  0
   -8.5571    4.4788   -6.8815 N   0  0  0  0  0  0  0  0  0  0  0  0
   -7.7041    5.3254   -9.0037 C   0  0  0  0  0  0  0  0  0  0  0  0
   -8.0350    5.0699  -10.4730 C   0  0  0  0  0  0  0  0  0  0  0  0
   -7.7408    3.6932  -10.8882 N   0  0  0  0  0  0  0  0  0  0  0  0
   -8.1537    3.4280  -12.2754 C   0  0  0  0  0  0  0  0  0  0  0  0
   -7.3175    4.1770  -13.3100 C   0  0  0  0  0  0  0  0  0  0  0  0
   -6.2668    4.6517  -13.0965 O   0  0  0  0  0  0  0  0  0  0  0  0
   -8.1246    4.0570  -14.6501 N   0  0  0  0  0  0  0  0  0  0  0  0
   -7.7702    4.3969  -15.9471 C   0  0  0  0  0  0  0  0  0  0  0  0
   -8.6718    4.2184  -17.0225 C   0  0  0  0  0  0  0  0  0  0  0  0
   -8.2544    4.4331  -18.3486 C   0  0  0  0  0  0  0  0  0  0  0  0
   -6.9397    4.7980  -18.5340 C   0  0  0  0  0  0  0  0  0  0  0  0
   -6.2016    5.0109  -19.6946 N   0  0  0  0  0  0  0  0  0  0  0  0
   -4.8677    5.2733  -19.3486 C   0  0  0  0  0  0  0  0  0  0  0  0
   -3.9084    5.4444  -20.0840 O   0  0  0  0  0  0  0  0  0  0  0  0
   -4.8160    5.2903  -17.9519 N   0  0  0  0  0  0  0  0  0  0  0  0
   -6.0765    4.9850  -17.4637 C   0  0  0  0  0  0  0  0  0  0  0  0
   -6.4627    4.8241  -16.1655 C   0  0  0  0  0  0  0  0  0  0  0  0
   -8.3763    2.6620  -10.0448 C   0  0  0  0  0  0  0  0  0  0  0  0
  1  2  1  0
  2  3  1  0
  3  4  2  0
  4  5  1  0
  5  6  1  0
  5  7  1  0
  7  8  1  0
  8  9  1  0
  9 10  1  0
 10 11  1  0
 11 12  2  0
 11 13  1  0
 13 14  1  0
 14 15  2  0
 15 16  1  0
 16 17  2  0
 17 18  1  0
 18 19  1  0
 19 20  2  0
 19 21  1  0
 21 22  1  0
 22 23  2  0
  9 24  1  0
  6  2  2  0
 23 14  1  0
 24  4  1  0
 22 17  1  0
M  END
>  <tags>  (132) 
openbind_xx01zvns2b_c1_knitwork_impure,fragmenstein_placed,openbind_xx01zvns2b_c1_scaffolds_chemok_bbok,BulkDock Fragalysis export,openbind_xx01zvns2b_c1_scaffolds

>  <placement_batch>  (132) 
openbind_xx01zvns2b_c1_knitwork_impure

>  <inspiration_score>  (132) 
None

>  <name>  (132) 
P59099

>  <HIPPO Pose ID>  (132) 
59099

>  <ref_pdb>  (132) 
Z0089a

>  <inchikey>  (132) 
PWUBNZRQJCGYHQ-UHFFFAOYSA-N

>  <alias>  (132) 
None

>  <ref_mols>  (132) 
Z3503a,Z4245a,Z0089a

>  <subsites>  (132) 
1 - Z4590/B/203/1

>  <distance_score>  (132) 
0.955347

>  <HIPPO Compound ID>  (132) 
69260

>  <smiles>  (132) 
Nc1cc2n(n1)CCN(CC(=O)Nc1ccc3[nH]c(=O)[nH]c3c1)C2

>  <energy_score>  (132) 
-64.178756

$$$$
P59196
     RDKit          3D

 23 26  0  0  0  0  0  0  0  0999 V2000
   -9.8678    5.9301  -13.9405 O   0  0  0  0  0  0  0  0  0  0  0  0
   -8.7741    5.5678  -13.7556 C   0  0  0  0  0  0  0  0  0  0  0  0
   -7.8645    5.7225  -12.5164 N   0  0  0  0  0  0  0  0  0  0  0  0
   -8.0764    6.4366  -11.2848 C   0  0  0  0  0  0  0  0  0  0  0  0
   -8.2509    5.7266   -9.9975 C   0  0  0  0  0  0  0  0  0  0  0  0
   -8.4324    6.4536   -8.7817 C   0  0  0  0  0  0  0  0  0  0  0  0
   -8.6213    5.6809   -7.7150 N   0  0  0  0  0  0  0  0  0  0  0  0
   -8.6180    4.4472   -8.2415 N   0  0  0  0  0  0  0  0  0  0  0  0
   -8.3299    4.4084   -9.5863 C   0  0  0  0  0  0  0  0  0  0  0  0
   -8.2423    3.1013  -10.2791 C   0  0  0  0  0  0  0  0  0  0  0  0
   -8.0131    2.0218   -9.3260 N   0  0  0  0  0  0  0  0  0  0  0  0
   -9.0119    2.0451   -8.2494 C   0  0  0  0  0  0  0  0  0  0  0  0
   -8.8774    3.2969   -7.3957 C   0  0  0  0  0  0  0  0  0  0  0  0
   -8.1004    4.9311  -14.9590 C   0  0  0  0  0  0  0  0  0  0  0  0
   -8.8952    4.3748  -15.9922 C   0  0  0  0  0  0  0  0  0  0  0  0
   -8.4266    4.1899  -17.3119 C   0  0  0  0  0  0  0  0  0  0  0  0
   -7.1094    4.5634  -17.5820 C   0  0  0  0  0  0  0  0  0  0  0  0
   -6.3755    4.5719  -18.7391 N   0  0  0  0  0  0  0  0  0  0  0  0
   -5.2127    5.0675  -18.3684 C   0  0  0  0  0  0  0  0  0  0  0  0
   -3.9107    5.3786  -19.4629 S   0  0  0  0  0  0  0  0  0  0  0  0
   -5.1135    5.3642  -17.0389 O   0  0  0  0  0  0  0  0  0  0  0  0
   -6.3386    5.0482  -16.5417 C   0  0  0  0  0  0  0  0  0  0  0  0
   -6.7632    5.2468  -15.2303 C   0  0  0  0  0  0  0  0  0  0  0  0
  1  2  2  0
  2  3  1  0
  3  4  1  0
  4  5  1  0
  5  6  1  0
  6  7  2  0
  7  8  1  0
  8  9  1  0
  9 10  1  0
 10 11  1  0
 11 12  1  0
 12 13  1  0
  2 14  1  0
 14 15  2  0
 15 16  1  0
 16 17  2  0
 17 18  1  0
 18 19  2  0
 19 20  1  0
 19 21  1  0
 21 22  1  0
 22 23  2  0
  9  5  2  0
 23 14  1  0
 13  8  1  0
 22 17  1  0
M  END
>  <tags>  (133) 
openbind_xx01zvns2b_c1_knitwork_impure,BulkDock Fragalysis export,fragmenstein_placed,openbind_xx01zvns2b_c1_scaffolds

>  <placement_batch>  (133) 
openbind_xx01zvns2b_c1_knitwork_impure

>  <inspiration_score>  (133) 
None

>  <name>  (133) 
P59196

>  <HIPPO Pose ID>  (133) 
59196

>  <ref_pdb>  (133) 
Z0969a

>  <inchikey>  (133) 
WOIMNGJBQAIXMX-UHFFFAOYSA-N

>  <alias>  (133) 
None

>  <ref_mols>  (133) 
Z0969a,Z0089a

>  <subsites>  (133) 
1 - Z4590/B/203/1

>  <distance_score>  (133) 
0.989935

>  <HIPPO Compound ID>  (133) 
69380

>  <smiles>  (133) 
O=C(NCc1cnn2c1CNCC2)c1ccc2nc(S)oc2c1

>  <energy_score>  (133) 
-27.707276

$$$$
P59217
     RDKit          3D

 12 12  0  0  0  0  0  0  0  0999 V2000
   -4.3283    6.8199  -17.8224 O   0  0  0  0  0  0  0  0  0  0  0  0
   -4.6925    6.2374  -18.7681 C   0  0  0  0  0  0  0  0  0  0  0  0
   -3.8492    6.1470  -20.0200 C   0  0  0  0  0  0  0  0  0  0  0  0
   -4.3353    7.1363  -21.0539 C   0  0  0  0  0  0  0  0  0  0  0  0
   -3.2233    7.1580  -22.4458 Cl  0  0  0  0  0  0  0  0  0  0  0  0
   -5.9895    5.4139  -19.0064 N   0  0  0  0  0  0  0  0  0  0  0  0
   -7.0158    5.0746  -18.1330 C   0  0  0  0  0  0  0  0  0  0  0  0
   -8.1170    4.3450  -18.5338 C   0  0  0  0  0  0  0  0  0  0  0  0
   -9.0997    3.9512  -17.6957 N   0  0  0  0  0  0  0  0  0  0  0  0
   -8.9559    4.3406  -16.4179 C   0  0  0  0  0  0  0  0  0  0  0  0
   -7.9555    5.0837  -15.9173 N   0  0  0  0  0  0  0  0  0  0  0  0
   -6.9899    5.4168  -16.7957 C   0  0  0  0  0  0  0  0  0  0  0  0
  1  2  2  0
  2  3  1  0
  3  4  1  0
  4  5  1  0
  2  6  1  0
  6  7  1  0
  7  8  2  0
  8  9  1  0
  9 10  2  0
 10 11  1  0
 11 12  2  0
 12  7  1  0
M  END
>  <tags>  (134) 
openbind_xx01zvns2b_c1_knitwork_impure,fragmenstein_placed,openbind_xx01zvns2b_c1_scaffolds_chemok_bbok,BulkDock Fragalysis export,openbind_xx01zvns2b_c1_scaffolds

>  <placement_batch>  (134) 
openbind_xx01zvns2b_c1_knitwork_impure

>  <inspiration_score>  (134) 
None

>  <name>  (134) 
P59217

>  <HIPPO Pose ID>  (134) 
59217

>  <ref_pdb>  (134) 
Z0875a

>  <inchikey>  (134) 
CXVKBMNVDYVQAZ-UHFFFAOYSA-N

>  <alias>  (134) 
None

>  <ref_mols>  (134) 
Z0875a,Z1597a

>  <subsites>  (134) 
1 - Z4590/B/203/1

>  <distance_score>  (134) 
0.812344

>  <HIPPO Compound ID>  (134) 
69408

>  <smiles>  (134) 
O=C(CCCl)Nc1cncnc1

>  <energy_score>  (134) 
-19.870987

$$$$
P59219
     RDKit          3D

 14 14  0  0  0  0  0  0  0  0999 V2000
   -7.3585    4.0990   -8.9017 F   0  0  0  0  0  0  0  0  0  0  0  0
   -7.7247    2.9350   -9.5115 C   0  0  0  0  0  0  0  0  0  0  0  0
   -8.5412    2.2999   -8.6317 F   0  0  0  0  0  0  0  0  0  0  0  0
   -8.4967    3.2842  -10.7654 C   0  0  0  0  0  0  0  0  0  0  0  0
   -7.6497    3.7971  -11.8058 O   0  0  0  0  0  0  0  0  0  0  0  0
   -8.4393    4.4725  -12.7801 C   0  0  0  0  0  0  0  0  0  0  0  0
   -7.7532    4.4988  -14.1355 C   0  0  0  0  0  0  0  0  0  0  0  0
   -8.7622    4.7657  -15.1524 N   0  0  0  0  0  0  0  0  0  0  0  0
   -8.2107    4.7704  -16.4260 C   0  0  0  0  0  0  0  0  0  0  0  0
   -8.9182    4.1504  -17.3771 N   0  0  0  0  0  0  0  0  0  0  0  0
   -8.3796    4.1536  -18.6093 C   0  0  0  0  0  0  0  0  0  0  0  0
   -7.1570    4.7012  -18.9036 C   0  0  0  0  0  0  0  0  0  0  0  0
   -6.5247    5.3205  -17.8627 C   0  0  0  0  0  0  0  0  0  0  0  0
   -7.0344    5.3839  -16.6249 N   0  0  0  0  0  0  0  0  0  0  0  0
  1  2  1  0
  2  3  1  0
  2  4  1  0
  4  5  1  0
  5  6  1  0
  6  7  1  0
  7  8  1  0
  8  9  1  0
  9 10  2  0
 10 11  1  0
 11 12  2  0
 12 13  1  0
 13 14  2  0
 14  9  1  0
M  END
>  <tags>  (135) 
openbind_xx01zvns2b_c1_knitwork_impure,fragmenstein_placed,openbind_xx01zvns2b_c1_scaffolds_chemok_bbok,BulkDock Fragalysis export,openbind_xx01zvns2b_c1_scaffolds

>  <placement_batch>  (135) 
openbind_xx01zvns2b_c1_knitwork_impure

>  <inspiration_score>  (135) 
None

>  <name>  (135) 
P59219

>  <HIPPO Pose ID>  (135) 
59219

>  <ref_pdb>  (135) 
Z0875a

>  <inchikey>  (135) 
FADRFWFRWHYODE-UHFFFAOYSA-N

>  <alias>  (135) 
None

>  <ref_mols>  (135) 
Z0875a,Z1597a

>  <subsites>  (135) 
1 - Z4590/B/203/1

>  <distance_score>  (135) 
0.834743

>  <HIPPO Compound ID>  (135) 
69413

>  <smiles>  (135) 
FC(F)COCCNc1ncccn1

>  <energy_score>  (135) 
-22.625512

$$$$
P59226
     RDKit          3D

 14 14  0  0  0  0  0  0  0  0999 V2000
   -7.1202    5.1367  -18.1146 C   0  0  0  0  0  0  0  0  0  0  0  0
   -6.6151    4.9305  -16.6966 C   0  0  0  0  0  0  0  0  0  0  0  0
   -7.7363    4.9562  -15.6578 C   0  0  0  0  0  0  0  0  0  0  0  0
   -7.3910    4.2406  -14.3304 C   0  0  1  0  0  0  0  0  0  0  0  0
   -5.9858    4.5709  -13.7645 C   0  0  0  0  0  0  0  0  0  0  0  0
   -5.6933    5.9662  -13.7466 O   0  0  0  0  0  0  0  0  0  0  0  0
   -4.5244    6.2400  -12.9855 C   0  0  0  0  0  0  0  0  0  0  0  0
   -8.5448    4.4560  -13.4205 N   0  0  0  0  0  0  0  0  0  0  0  0
   -8.3042    4.4155  -12.0448 C   0  0  0  0  0  0  0  0  0  0  0  0
   -8.2036    3.2109  -11.3753 C   0  0  0  0  0  0  0  0  0  0  0  0
   -7.9871    3.2677  -10.0166 C   0  0  0  0  0  0  0  0  0  0  0  0
   -7.8580    4.4207   -9.3394 N   0  0  0  0  0  0  0  0  0  0  0  0
   -7.9563    5.5290  -10.0853 C   0  0  0  0  0  0  0  0  0  0  0  0
   -8.1639    5.5868  -11.4082 N   0  0  0  0  0  0  0  0  0  0  0  0
  1  2  1  0
  2  3  1  0
  4  3  1  6
  4  5  1  0
  5  6  1  0
  6  7  1  0
  4  8  1  0
  8  9  1  0
  9 10  2  0
 10 11  1  0
 11 12  2  0
 12 13  1  0
 13 14  2  0
 14  9  1  0
M  END
>  <tags>  (136) 
openbind_xx01zvns2b_c1_knitwork_impure,fragmenstein_placed,openbind_xx01zvns2b_c1_scaffolds_chemok_bbok,BulkDock Fragalysis export,openbind_xx01zvns2b_c1_scaffolds

>  <placement_batch>  (136) 
openbind_xx01zvns2b_c1_knitwork_impure

>  <inspiration_score>  (136) 
None

>  <name>  (136) 
P59226

>  <HIPPO Pose ID>  (136) 
59226

>  <ref_pdb>  (136) 
Z0875a

>  <inchikey>  (136) 
MHQXJDNWZTZLAL-UHFFFAOYSA-N

>  <alias>  (136) 
None

>  <ref_mols>  (136) 
Z0875a,Z1597a

>  <subsites>  (136) 
1 - Z4590/B/203/1

>  <distance_score>  (136) 
0.949087

>  <HIPPO Compound ID>  (136) 
69424

>  <smiles>  (136) 
CCC[C@@H](COC)Nc1ccncn1

>  <energy_score>  (136) 
-20.461435

$$$$
P59246
     RDKit          3D

 14 15  0  0  0  0  0  0  0  0999 V2000
   -6.4622    5.2988  -13.8974 C   0  0  0  0  0  0  0  0  0  0  0  0
   -8.1153    4.7102  -14.2062 S   0  0  0  0  0  0  0  0  0  0  0  0
   -8.0838    3.9921  -15.4613 O   0  0  0  0  0  0  0  0  0  0  0  0
   -9.0682    5.7855  -14.0553 O   0  0  0  0  0  0  0  0  0  0  0  0
   -8.3628    3.5838  -13.0149 N   0  0  0  0  0  0  0  0  0  0  0  0
   -8.4564    3.8436  -11.6119 C   0  0  0  0  0  0  0  0  0  0  0  0
   -8.2467    5.0891  -10.9995 C   0  0  0  0  0  0  0  0  0  0  0  0
   -8.2906    5.2226   -9.6028 C   0  0  0  0  0  0  0  0  0  0  0  0
   -8.5722    4.1026   -8.8428 C   0  0  0  0  0  0  0  0  0  0  0  0
   -8.7804    2.8693   -9.4434 C   0  0  0  0  0  0  0  0  0  0  0  0
   -8.6991    2.7206  -10.8137 C   0  0  0  0  0  0  0  0  0  0  0  0
   -9.0665    1.8462   -8.3963 C   0  0  0  0  0  0  0  0  0  0  0  0
   -9.3800    2.6357   -7.1748 N   0  0  0  0  0  0  0  0  0  0  0  0
   -8.7128    3.9423   -7.3664 C   0  0  0  0  0  0  0  0  0  0  0  0
  1  2  1  0
  2  3  2  0
  2  4  2  0
  2  5  1  0
  5  6  1  0
  6  7  2  0
  7  8  1  0
  8  9  2  0
  9 10  1  0
 10 11  2  0
 10 12  1  0
 12 13  1  0
 13 14  1  0
 11  6  1  0
 14  9  1  0
M  END
>  <tags>  (137) 
openbind_xx01zvns2b_c1_knitwork_impure,BulkDock Fragalysis export,fragmenstein_placed,openbind_xx01zvns2b_c1_scaffolds

>  <placement_batch>  (137) 
openbind_xx01zvns2b_c1_knitwork_impure

>  <inspiration_score>  (137) 
None

>  <name>  (137) 
P59246

>  <HIPPO Pose ID>  (137) 
59246

>  <ref_pdb>  (137) 
Z3596a

>  <inchikey>  (137) 
XNPKKTNXQNOBQV-UHFFFAOYSA-N

>  <alias>  (137) 
None

>  <ref_mols>  (137) 
Z1046b,Z3596a

>  <subsites>  (137) 
1 - Z4590/B/203/1

>  <distance_score>  (137) 
0.783066

>  <HIPPO Compound ID>  (137) 
69449

>  <smiles>  (137) 
CS(=O)(=O)Nc1ccc2c(c1)CNC2

>  <energy_score>  (137) 
-29.224768

$$$$
P59274
     RDKit          3D

 11 12  0  0  0  0  0  0  0  0999 V2000
   -8.2682    3.8185  -10.9949 C   0  0  0  0  0  0  0  0  0  0  0  0
   -8.1527    3.8069  -12.3766 C   0  0  0  0  0  0  0  0  0  0  0  0
   -7.9012    5.0080  -13.0428 C   0  0  0  0  0  0  0  0  0  0  0  0
   -7.7159    5.0517  -14.4896 C   0  0  0  0  0  0  0  0  0  0  0  0
   -6.8726    5.7805  -15.1979 N   0  0  0  0  0  0  0  0  0  0  0  0
   -7.0699    5.3492  -16.4886 C   0  0  0  0  0  0  0  0  0  0  0  0
   -8.0802    4.4245  -16.5245 C   0  0  0  0  0  0  0  0  0  0  0  0
   -8.5146    4.2351  -15.2478 O   0  0  0  0  0  0  0  0  0  0  0  0
   -7.7698    6.1718  -12.2816 C   0  0  0  0  0  0  0  0  0  0  0  0
   -7.9054    6.0858  -10.9047 C   0  0  0  0  0  0  0  0  0  0  0  0
   -8.1452    4.9356  -10.2425 N   0  0  0  0  0  0  0  0  0  0  0  0
  1  2  2  0
  2  3  1  0
  3  4  1  0
  4  5  2  0
  5  6  1  0
  6  7  2  0
  7  8  1  0
  3  9  2  0
  9 10  1  0
 10 11  2  0
 11  1  1  0
  8  4  1  0
M  END
>  <tags>  (138) 
openbind_xx01zvns2b_c1_knitwork_impure,BulkDock Fragalysis export,fragmenstein_placed,openbind_xx01zvns2b_c1_scaffolds

>  <placement_batch>  (138) 
openbind_xx01zvns2b_c1_knitwork_impure

>  <inspiration_score>  (138) 
None

>  <name>  (138) 
P59274

>  <HIPPO Pose ID>  (138) 
59274

>  <ref_pdb>  (138) 
Z1495a

>  <inchikey>  (138) 
SKEAVOSGVJUILS-UHFFFAOYSA-N

>  <alias>  (138) 
None

>  <ref_mols>  (138) 
Z1495a,Z0465a

>  <subsites>  (138) 
1 - Z4590/B/203/1

>  <distance_score>  (138) 
0.964158

>  <HIPPO Compound ID>  (138) 
60257

>  <smiles>  (138) 
c1cc(-c2ncco2)ccn1

>  <energy_score>  (138) 
-8.932896

$$$$
P59313
     RDKit          3D

 10 10  0  0  0  0  0  0  0  0999 V2000
   -4.5525    6.9518  -20.9981 C   0  0  0  0  0  0  0  0  0  0  0  0
   -4.2974    5.6754  -20.2299 C   0  0  0  0  0  0  0  0  0  0  0  0
   -4.9763    5.6853  -18.8664 C   0  0  0  0  0  0  0  0  0  0  0  0
   -4.4181    6.0029  -17.8903 O   0  0  0  0  0  0  0  0  0  0  0  0
   -6.4155    5.1392  -19.0703 N   0  0  0  0  0  0  0  0  0  0  0  0
   -7.3760    4.8011  -18.1547 C   0  0  0  0  0  0  0  0  0  0  0  0
   -8.6174    4.1848  -18.5275 C   0  0  0  0  0  0  0  0  0  0  0  0
   -9.4235    3.8276  -17.5281 N   0  0  0  0  0  0  0  0  0  0  0  0
   -8.5996    4.2995  -16.1485 S   0  0  0  0  0  0  0  0  0  0  0  0
   -7.2391    4.9864  -16.8401 N   0  0  0  0  0  0  0  0  0  0  0  0
  1  2  1  0
  2  3  1  0
  3  4  2  0
  3  5  1  0
  5  6  1  0
  6  7  1  0
  7  8  2  0
  8  9  1  0
  9 10  1  0
 10  6  2  0
M  END
>  <tags>  (139) 
openbind_xx01zvns2b_c1_knitwork_impure,fragmenstein_placed,openbind_xx01zvns2b_c1_scaffolds_chemok_bbok,BulkDock Fragalysis export,openbind_xx01zvns2b_c1_scaffolds

>  <placement_batch>  (139) 
openbind_xx01zvns2b_c1_knitwork_impure

>  <inspiration_score>  (139) 
None

>  <name>  (139) 
P59313

>  <HIPPO Pose ID>  (139) 
59313

>  <ref_pdb>  (139) 
Z1597a

>  <inchikey>  (139) 
JETXZRJMJCWPKC-UHFFFAOYSA-N

>  <alias>  (139) 
None

>  <ref_mols>  (139) 
Z0875a,Z1597a

>  <subsites>  (139) 
1 - Z4590/B/203/1

>  <distance_score>  (139) 
0.709206

>  <HIPPO Compound ID>  (139) 
69556

>  <smiles>  (139) 
CCC(=O)Nc1cnsn1

>  <energy_score>  (139) 
-23.579965

$$$$
P59509
     RDKit          3D

 15 15  0  0  0  0  0  0  0  0999 V2000
   -7.6963    4.9652   -9.5195 C   0  0  0  0  0  0  0  0  0  0  0  0
   -8.0752    4.0349  -10.4124 C   0  0  0  0  0  0  0  0  0  0  0  0
   -8.4938    2.6376   -9.9978 C   0  0  0  0  0  0  0  0  0  0  0  0
   -8.7739    2.4012   -8.5201 C   0  0  0  0  0  0  0  0  0  0  0  0
   -8.0660    4.2258  -11.9222 C   0  0  0  0  0  0  0  0  0  0  0  0
   -7.7112    5.6231  -12.4844 C   0  0  2  0  0  0  0  0  0  0  0  0
   -8.6565    6.6751  -12.0768 N   0  0  0  0  0  0  0  0  0  0  0  0
   -7.6825    5.6368  -14.0176 C   0  0  0  0  0  0  0  0  0  0  0  0
   -6.6082    4.7152  -14.5893 C   0  0  0  0  0  0  0  0  0  0  0  0
   -6.4091    4.9940  -16.0473 C   0  0  0  0  0  0  0  0  0  0  0  0
   -7.3744    4.6169  -16.9813 C   0  0  0  0  0  0  0  0  0  0  0  0
   -7.1671    4.8913  -18.3242 C   0  0  0  0  0  0  0  0  0  0  0  0
   -5.9997    5.5391  -18.6900 C   0  0  0  0  0  0  0  0  0  0  0  0
   -5.0415    5.9292  -17.8156 N   0  0  0  0  0  0  0  0  0  0  0  0
   -5.2731    5.6475  -16.5145 C   0  0  0  0  0  0  0  0  0  0  0  0
  1  2  2  0
  2  3  1  0
  3  4  1  0
  2  5  1  0
  5  6  1  0
  6  7  1  6
  6  8  1  0
  8  9  1  0
  9 10  1  0
 10 11  2  0
 11 12  1  0
 12 13  2  0
 13 14  1  0
 14 15  2  0
 15 10  1  0
M  END
>  <tags>  (140) 
openbind_xx01zvns2b_c1_knitwork_impure,BulkDock Fragalysis export,fragmenstein_placed,openbind_xx01zvns2b_c1_scaffolds

>  <placement_batch>  (140) 
openbind_xx01zvns2b_c1_knitwork_impure

>  <inspiration_score>  (140) 
None

>  <name>  (140) 
P59509

>  <HIPPO Pose ID>  (140) 
59509

>  <ref_pdb>  (140) 
Z1495a

>  <inchikey>  (140) 
CCCBUROPFUHOJP-UHFFFAOYSA-N

>  <alias>  (140) 
None

>  <ref_mols>  (140) 
Z1495a,Z0472a

>  <subsites>  (140) 
1 - Z4590/B/203/1

>  <distance_score>  (140) 
0.880741

>  <HIPPO Compound ID>  (140) 
66102

>  <smiles>  (140) 
C=C(CC)C[C@H](N)CCc1cccnc1

>  <energy_score>  (140) 
-19.70346

$$$$
P59518
     RDKit          3D

 16 16  0  0  0  0  0  0  0  0999 V2000
   -5.8724    5.4299  -18.5589 C   0  0  0  0  0  0  0  0  0  0  0  0
   -7.1563    4.6388  -18.4085 C   0  0  0  0  0  0  0  0  0  0  0  0
   -7.8689    4.7837  -17.0592 C   0  0  0  0  0  0  0  0  0  0  0  0
   -9.1940    3.9839  -17.1047 C   0  0  0  0  0  0  0  0  0  0  0  0
  -10.2671    4.5213  -18.0315 C   0  0  0  0  0  0  0  0  0  0  0  0
   -7.0512    4.3312  -15.8229 C   0  0  0  0  0  0  0  0  0  0  0  0
   -6.6573    5.3368  -14.8256 N   0  0  0  0  0  0  0  0  0  0  0  0
   -5.6707    6.2891  -15.3120 C   0  0  0  0  0  0  0  0  0  0  0  0
   -7.6696    5.9359  -13.9410 C   0  0  1  0  0  0  0  0  0  0  0  0
   -9.1443    5.8590  -14.3134 C   0  0  0  0  0  0  0  0  0  0  0  0
   -7.5892    5.4148  -12.5071 C   0  0  0  0  0  0  0  0  0  0  0  0
   -7.7650    4.0603  -12.1922 C   0  0  0  0  0  0  0  0  0  0  0  0
   -7.8413    3.6852  -10.8576 C   0  0  0  0  0  0  0  0  0  0  0  0
   -7.7438    4.5552   -9.8256 N   0  0  0  0  0  0  0  0  0  0  0  0
   -7.5736    5.8524  -10.1478 C   0  0  0  0  0  0  0  0  0  0  0  0
   -7.4885    6.3245  -11.4478 C   0  0  0  0  0  0  0  0  0  0  0  0
  1  2  1  0
  2  3  1  0
  3  4  1  0
  4  5  1  0
  3  6  1  0
  6  7  1  0
  7  8  1  0
  7  9  1  0
  9 10  1  6
  9 11  1  0
 11 12  2  0
 12 13  1  0
 13 14  2  0
 14 15  1  0
 15 16  2  0
 16 11  1  0
M  END
>  <tags>  (141) 
openbind_xx01zvns2b_c1_knitwork_impure,fragmenstein_placed,openbind_xx01zvns2b_c1_scaffolds_chemok_bbok,BulkDock Fragalysis export,openbind_xx01zvns2b_c1_scaffolds

>  <placement_batch>  (141) 
openbind_xx01zvns2b_c1_knitwork_impure

>  <inspiration_score>  (141) 
None

>  <name>  (141) 
P59518

>  <HIPPO Pose ID>  (141) 
59518

>  <ref_pdb>  (141) 
Z1495a

>  <inchikey>  (141) 
IDGNPMIIGZXUCP-UHFFFAOYSA-N

>  <alias>  (141) 
None

>  <ref_mols>  (141) 
Z1495a,Z0472a

>  <subsites>  (141) 
1 - Z4590/B/203/1

>  <distance_score>  (141) 
0.788311

>  <HIPPO Compound ID>  (141) 
66118

>  <smiles>  (141) 
CCC(CC)CN(C)[C@@H](C)c1ccncc1

>  <energy_score>  (141) 
-40.00669

$$$$
P59569
     RDKit          3D

 14 15  0  0  0  0  0  0  0  0999 V2000
   -6.8755    5.8547  -16.3858 C   0  0  0  0  0  0  0  0  0  0  0  0
   -7.0065    5.9945  -14.8561 C   0  0  0  0  0  0  0  0  0  0  0  0
   -5.6269    5.7138  -14.2395 C   0  0  0  0  0  0  0  0  0  0  0  0
   -8.1395    5.0997  -14.2852 C   0  0  1  0  0  0  0  0  0  0  0  0
   -8.0838    3.8084  -14.9581 N   0  0  0  0  0  0  0  0  0  0  0  0
   -8.1681    4.9922  -12.7604 C   0  0  0  0  0  0  0  0  0  0  0  0
   -8.2864    6.2462  -11.9954 C   0  0  0  0  0  0  0  0  0  0  0  0
   -8.3073    6.2114  -10.6506 C   0  0  0  0  0  0  0  0  0  0  0  0
   -8.2451    4.9824  -10.0019 N   0  0  0  0  0  0  0  0  0  0  0  0
   -8.2580    4.6905   -8.6611 C   0  0  0  0  0  0  0  0  0  0  0  0
   -8.1894    3.3174   -8.5862 C   0  0  0  0  0  0  0  0  0  0  0  0
   -8.1295    2.7655   -9.8358 N   0  0  0  0  0  0  0  0  0  0  0  0
   -8.1577    3.7758  -10.6722 C   0  0  0  0  0  0  0  0  0  0  0  0
   -8.1106    3.8148  -12.0898 C   0  0  0  0  0  0  0  0  0  0  0  0
  1  2  1  0
  2  3  1  0
  2  4  1  0
  4  5  1  6
  4  6  1  0
  6  7  1  0
  7  8  2  0
  8  9  1  0
  9 10  1  0
 10 11  2  0
 11 12  1  0
 12 13  2  0
 13 14  1  0
 14  6  2  0
 13  9  1  0
M  END
>  <tags>  (142) 
openbind_xx01zvns2b_c1_knitwork_impure,BulkDock Fragalysis export,fragmenstein_placed,openbind_xx01zvns2b_c1_scaffolds

>  <placement_batch>  (142) 
openbind_xx01zvns2b_c1_knitwork_impure

>  <inspiration_score>  (142) 
None

>  <name>  (142) 
P59569

>  <HIPPO Pose ID>  (142) 
59569

>  <ref_pdb>  (142) 
Z1495a

>  <inchikey>  (142) 
XKGPIPFRWZUNPZ-UHFFFAOYSA-N

>  <alias>  (142) 
None

>  <ref_mols>  (142) 
Z1495a,Z0472a

>  <subsites>  (142) 
1 - Z4590/B/203/1

>  <distance_score>  (142) 
0.966347

>  <HIPPO Compound ID>  (142) 
70029

>  <smiles>  (142) 
CC(C)[C@@H](N)c1ccn2ccnc2c1

>  <energy_score>  (142) 
-20.151028

$$$$
P59698
     RDKit          3D

 14 16  0  0  0  0  0  0  0  0999 V2000
   -9.2957    3.7270  -18.1224 C   0  0  0  0  0  0  0  0  0  0  0  0
   -8.3816    4.1832  -19.0440 C   0  0  0  0  0  0  0  0  0  0  0  0
   -7.2365    4.8074  -18.7052 N   0  0  0  0  0  0  0  0  0  0  0  0
   -6.9653    4.9989  -17.4072 C   0  0  0  0  0  0  0  0  0  0  0  0
   -5.8245    5.7374  -17.0780 C   0  0  0  0  0  0  0  0  0  0  0  0
   -4.9991    6.4104  -18.2589 C   0  0  0  0  0  0  0  0  0  0  0  0
   -4.2543    5.4698  -19.2367 C   0  0  0  0  0  0  0  0  0  0  0  0
   -3.2252    6.5292  -19.4110 N   0  0  0  0  0  0  0  0  0  0  0  0
   -3.5992    7.0194  -18.0553 C   0  0  0  0  0  0  0  0  0  0  0  0
   -5.5200    5.8970  -15.7072 C   0  0  0  0  0  0  0  0  0  0  0  0
   -6.3442    5.3855  -14.7025 C   0  0  0  0  0  0  0  0  0  0  0  0
   -7.5102    4.7181  -15.0448 C   0  0  0  0  0  0  0  0  0  0  0  0
   -7.8246    4.5313  -16.3938 C   0  0  0  0  0  0  0  0  0  0  0  0
   -9.0050    3.8993  -16.7788 C   0  0  0  0  0  0  0  0  0  0  0  0
  1  2  2  0
  2  3  1  0
  3  4  2  0
  4  5  1  0
  5  6  1  0
  6  7  1  0
  7  8  1  0
  8  9  1  0
  5 10  2  0
 10 11  1  0
 11 12  2  0
 12 13  1  0
 13 14  2  0
 14  1  1  0
 13  4  1  0
  9  6  1  0
M  END
>  <tags>  (143) 
openbind_xx01zvns2b_c1_knitwork_impure,fragmenstein_placed,openbind_xx01zvns2b_c1_scaffolds_chemok_bbok,BulkDock Fragalysis export,openbind_xx01zvns2b_c1_scaffolds

>  <placement_batch>  (143) 
openbind_xx01zvns2b_c1_knitwork_impure

>  <inspiration_score>  (143) 
None

>  <name>  (143) 
P59698

>  <HIPPO Pose ID>  (143) 
59698

>  <ref_pdb>  (143) 
Z3527a

>  <inchikey>  (143) 
FURSHECYMMCZJJ-UHFFFAOYSA-N

>  <alias>  (143) 
None

>  <ref_mols>  (143) 
Z3527a,Z0819a

>  <subsites>  (143) 
1 - Z4590/B/203/1

>  <distance_score>  (143) 
0.983073

>  <HIPPO Compound ID>  (143) 
58268

>  <smiles>  (143) 
c1cnc2c(C3CNC3)cccc2c1

>  <energy_score>  (143) 
-19.78706

$$$$
P59706
     RDKit          3D

 13 15  0  0  0  0  0  0  0  0999 V2000
   -7.7761    4.6439  -17.7601 C   0  0  0  0  0  0  0  0  0  0  0  0
   -8.1822    4.6546  -16.4223 C   0  0  0  0  0  0  0  0  0  0  0  0
   -7.4847    5.3643  -15.4200 C   0  0  0  0  0  0  0  0  0  0  0  0
   -7.8728    5.4748  -13.9000 C   0  0  1  0  0  0  0  0  0  0  0  0
   -8.2566    4.2135  -13.0971 C   0  0  0  0  0  0  0  0  0  0  0  0
   -7.5072    4.8869  -11.9434 C   0  0  0  0  0  0  0  0  0  0  0  0
   -6.6787    5.5765  -12.9703 N   0  0  0  0  0  0  0  0  0  0  0  0
   -6.3664    6.0836  -15.8856 C   0  0  0  0  0  0  0  0  0  0  0  0
   -5.5116    6.9083  -15.1838 N   0  0  0  0  0  0  0  0  0  0  0  0
   -4.5214    7.3807  -15.9956 C   0  0  0  0  0  0  0  0  0  0  0  0
   -4.7494    6.8843  -17.2578 C   0  0  0  0  0  0  0  0  0  0  0  0
   -5.9185    6.0748  -17.2058 C   0  0  0  0  0  0  0  0  0  0  0  0
   -6.6345    5.3379  -18.1633 C   0  0  0  0  0  0  0  0  0  0  0  0
  1  2  2  0
  2  3  1  0
  4  3  1  6
  4  5  1  0
  5  6  1  0
  6  7  1  0
  3  8  2  0
  8  9  1  0
  9 10  1  0
 10 11  2  0
 11 12  1  0
 12 13  2  0
 13  1  1  0
  7  4  1  0
 12  8  1  0
M  END
>  <tags>  (144) 
openbind_xx01zvns2b_c1_knitwork_impure,BulkDock Fragalysis export,fragmenstein_placed,openbind_xx01zvns2b_c1_scaffolds

>  <placement_batch>  (144) 
openbind_xx01zvns2b_c1_knitwork_impure

>  <inspiration_score>  (144) 
None

>  <name>  (144) 
P59706

>  <HIPPO Pose ID>  (144) 
59706

>  <ref_pdb>  (144) 
Z2971a

>  <inchikey>  (144) 
GRGIGWJQNCASPO-UHFFFAOYSA-N

>  <alias>  (144) 
None

>  <ref_mols>  (144) 
Z0827a,Z2971a

>  <subsites>  (144) 
1 - Z4590/B/203/1

>  <distance_score>  (144) 
0.96661

>  <HIPPO Compound ID>  (144) 
67857

>  <smiles>  (144) 
c1cc([C@H]2CCN2)c2[nH]ccc2c1

>  <energy_score>  (144) 
-21.121901

$$$$
P59743
     RDKit          3D

 15 17  0  0  0  0  0  0  0  0999 V2000
   -4.5060    5.4581  -15.5186 C   0  0  0  0  0  0  0  0  0  0  0  0
   -5.1196    5.2156  -14.2647 C   0  0  0  0  0  0  0  0  0  0  0  0
   -6.4811    4.8607  -14.1335 C   0  0  0  0  0  0  0  0  0  0  0  0
   -7.1637    4.5650  -12.8109 C   0  0  1  0  0  0  0  0  0  0  0  0
   -7.2247    3.0552  -12.5490 C   0  0  0  0  0  0  0  0  0  0  0  0
   -8.0261    2.7441  -11.2814 C   0  0  0  0  0  0  0  0  0  0  0  0
   -8.2609    3.9508  -10.3822 C   0  0  0  0  0  0  0  0  0  0  0  0
   -7.0339    4.7301  -10.2468 N   0  0  0  0  0  0  0  0  0  0  0  0
   -6.5698    5.2536  -11.5491 C   0  0  0  0  0  0  0  0  0  0  0  0
   -7.0565    4.7720  -15.4215 C   0  0  0  0  0  0  0  0  0  0  0  0
   -8.3659    4.4081  -15.6397 C   0  0  0  0  0  0  0  0  0  0  0  0
   -8.7518    4.3164  -17.3130 S   0  0  0  0  0  0  0  0  0  0  0  0
   -7.1768    4.8223  -17.7740 C   0  0  0  0  0  0  0  0  0  0  0  0
   -6.3797    5.0162  -16.6743 C   0  0  0  0  0  0  0  0  0  0  0  0
   -5.0762    5.3878  -16.7536 N   0  0  0  0  0  0  0  0  0  0  0  0
  1  2  1  0
  2  3  2  0
  4  3  1  6
  4  5  1  0
  5  6  1  0
  6  7  1  0
  7  8  1  0
  8  9  1  0
  3 10  1  0
 10 11  2  0
 11 12  1  0
 12 13  1  0
 13 14  2  0
 14 15  1  0
 15  1  2  0
  9  4  1  0
 14 10  1  0
M  END
>  <tags>  (145) 
openbind_xx01zvns2b_c1_knitwork_impure,BulkDock Fragalysis export,fragmenstein_placed,openbind_xx01zvns2b_c1_scaffolds

>  <placement_batch>  (145) 
openbind_xx01zvns2b_c1_knitwork_impure

>  <inspiration_score>  (145) 
None

>  <name>  (145) 
P59743

>  <HIPPO Pose ID>  (145) 
59743

>  <ref_pdb>  (145) 
Z1716a

>  <inchikey>  (145) 
QMSVEKMJJYMTJC-UHFFFAOYSA-N

>  <alias>  (145) 
None

>  <ref_mols>  (145) 
Z1729a,Z1716a

>  <subsites>  (145) 
1 - Z4590/B/203/1

>  <distance_score>  (145) 
0.974391

>  <HIPPO Compound ID>  (145) 
59461

>  <smiles>  (145) 
c1cc([C@H]2CCCNC2)c2cscc2n1

>  <energy_score>  (145) 
-42.188103

$$$$
P59775
     RDKit          3D

 10 10  0  0  0  0  0  0  0  0999 V2000
   -4.5509    6.9657  -21.0624 C   0  0  0  0  0  0  0  0  0  0  0  0
   -4.5922    5.5128  -20.6484 C   0  0  0  0  0  0  0  0  0  0  0  0
   -4.9278    5.3759  -19.1719 C   0  0  0  0  0  0  0  0  0  0  0  0
   -4.1052    5.4226  -18.3436 O   0  0  0  0  0  0  0  0  0  0  0  0
   -6.4571    5.1389  -19.0580 N   0  0  0  0  0  0  0  0  0  0  0  0
   -7.2216    4.8365  -17.9828 C   0  0  0  0  0  0  0  0  0  0  0  0
   -6.9374    4.8340  -16.6414 C   0  0  0  0  0  0  0  0  0  0  0  0
   -8.0807    4.3846  -15.9213 C   0  0  0  0  0  0  0  0  0  0  0  0
   -9.1653    4.0912  -16.6351 N   0  0  0  0  0  0  0  0  0  0  0  0
   -8.8096    4.2997  -18.2451 S   0  0  0  0  0  0  0  0  0  0  0  0
  1  2  1  0
  2  3  1  0
  3  4  2  0
  3  5  1  0
  5  6  1  0
  6  7  2  0
  7  8  1  0
  8  9  2  0
  9 10  1  0
 10  6  1  0
M  END
>  <tags>  (146) 
openbind_xx01zvns2b_c1_knitwork_impure,BulkDock Fragalysis export,fragmenstein_placed,openbind_xx01zvns2b_c1_scaffolds

>  <placement_batch>  (146) 
openbind_xx01zvns2b_c1_knitwork_impure

>  <inspiration_score>  (146) 
None

>  <name>  (146) 
P59775

>  <HIPPO Pose ID>  (146) 
59775

>  <ref_pdb>  (146) 
Z1597a

>  <inchikey>  (146) 
WPFGFQYXHQUDCJ-UHFFFAOYSA-N

>  <alias>  (146) 
None

>  <ref_mols>  (146) 
Z1597a,Z0465a

>  <subsites>  (146) 
1 - Z4590/B/203/1

>  <distance_score>  (146) 
0.857837

>  <HIPPO Compound ID>  (146) 
62243

>  <smiles>  (146) 
CCC(=O)Nc1ccns1

>  <energy_score>  (146) 
-31.659025

$$$$
P59908
     RDKit          3D

 12 13  0  0  0  0  0  0  0  0999 V2000
   -4.9418    5.1863  -16.2234 C   0  0  0  0  0  0  0  0  0  0  0  0
   -4.7632    4.7851  -17.4929 C   0  0  0  0  0  0  0  0  0  0  0  0
   -3.4490    4.9356  -18.2316 C   0  0  1  0  0  0  0  0  0  0  0  0
   -3.5520    5.1861  -19.7235 C   0  0  0  0  0  0  0  0  0  0  0  0
   -4.6938    5.6760  -20.3644 C   0  0  0  0  0  0  0  0  0  0  0  0
   -4.6774    5.9057  -21.7383 C   0  0  0  0  0  0  0  0  0  0  0  0
   -3.5072    5.6622  -22.4341 C   0  0  0  0  0  0  0  0  0  0  0  0
   -2.3832    5.1951  -21.8628 N   0  0  0  0  0  0  0  0  0  0  0  0
   -2.4350    4.9539  -20.5328 C   0  0  0  0  0  0  0  0  0  0  0  0
   -2.6095    5.9801  -17.6104 N   0  0  0  0  0  0  0  0  0  0  0  0
   -2.4738    5.7396  -16.1730 C   0  0  0  0  0  0  0  0  0  0  0  0
   -3.8251    5.8193  -15.4492 C   0  0  0  0  0  0  0  0  0  0  0  0
  1  2  2  0
  2  3  1  0
  3  4  1  6
  4  5  2  0
  5  6  1  0
  6  7  2  0
  7  8  1  0
  8  9  2  0
  3 10  1  0
 10 11  1  0
 11 12  1  0
 12  1  1  0
  9  4  1  0
M  END
>  <tags>  (147) 
openbind_xx01zvns2b_c1_knitwork_impure,BulkDock Fragalysis export,fragmenstein_placed,openbind_xx01zvns2b_c1_scaffolds

>  <placement_batch>  (147) 
openbind_xx01zvns2b_c1_knitwork_impure

>  <inspiration_score>  (147) 
None

>  <name>  (147) 
P59908

>  <HIPPO Pose ID>  (147) 
59908

>  <ref_pdb>  (147) 
Z0852a

>  <inchikey>  (147) 
YNCSSZVDBJCDGN-UHFFFAOYSA-N

>  <alias>  (147) 
None

>  <ref_mols>  (147) 
Z0182a,Z0852a

>  <subsites>  (147) 
1 - Z4590/B/203/1

>  <distance_score>  (147) 
0.977192

>  <HIPPO Compound ID>  (147) 
59143

>  <smiles>  (147) 
C1=C[C@@H](c2cccnc2)NCC1

>  <energy_score>  (147) 
-20.754681

$$$$
P59911
     RDKit          3D

 10 11  0  0  0  0  0  0  0  0999 V2000
   -4.5753    5.5835  -21.8674 C   0  0  0  0  0  0  0  0  0  0  0  0
   -3.2696    5.4438  -22.2914 C   0  0  0  0  0  0  0  0  0  0  0  0
   -2.2401    5.2292  -21.4557 N   0  0  0  0  0  0  0  0  0  0  0  0
   -2.5323    5.1496  -20.1335 C   0  0  0  0  0  0  0  0  0  0  0  0
   -3.8049    5.2864  -19.5659 C   0  0  0  0  0  0  0  0  0  0  0  0
   -4.1119    5.2467  -18.0171 C   0  0  1  0  0  0  0  0  0  0  0  0
   -3.2890    4.3982  -17.0434 C   0  0  0  0  0  0  0  0  0  0  0  0
   -2.5141    5.6735  -16.7183 C   0  0  0  0  0  0  0  0  0  0  0  0
   -3.5774    6.4650  -17.3607 N   0  0  0  0  0  0  0  0  0  0  0  0
   -4.8336    5.4971  -20.5022 C   0  0  0  0  0  0  0  0  0  0  0  0
  1  2  2  0
  2  3  1  0
  3  4  2  0
  4  5  1  0
  6  5  1  6
  6  7  1  0
  7  8  1  0
  8  9  1  0
  5 10  2  0
 10  1  1  0
  9  6  1  0
M  END
>  <tags>  (148) 
openbind_xx01zvns2b_c1_knitwork_impure,fragmenstein_placed,openbind_xx01zvns2b_c1_scaffolds_chemok_bbok,BulkDock Fragalysis export,openbind_xx01zvns2b_c1_scaffolds

>  <placement_batch>  (148) 
openbind_xx01zvns2b_c1_knitwork_impure

>  <inspiration_score>  (148) 
None

>  <name>  (148) 
P59911

>  <HIPPO Pose ID>  (148) 
59911

>  <ref_pdb>  (148) 
Z0852a

>  <inchikey>  (148) 
GZMCTBANYGOHAT-UHFFFAOYSA-N

>  <alias>  (148) 
None

>  <ref_mols>  (148) 
Z0182a,Z0852a

>  <subsites>  (148) 
1 - Z4590/B/203/1

>  <distance_score>  (148) 
0.918643

>  <HIPPO Compound ID>  (148) 
59154

>  <smiles>  (148) 
c1cncc([C@H]2CCN2)c1

>  <energy_score>  (148) 
-20.204384

$$$$
P59914
     RDKit          3D

 12 13  0  0  0  0  0  0  0  0999 V2000
   -3.2772    4.7297  -15.7777 C   0  0  0  0  0  0  0  0  0  0  0  0
   -4.5713    4.6248  -16.1020 C   0  0  0  0  0  0  0  0  0  0  0  0
   -5.1651    5.4110  -17.2327 C   0  0  0  0  0  0  0  0  0  0  0  0
   -4.1438    6.2630  -18.0384 C   0  0  2  0  0  0  0  0  0  0  0  0
   -3.8167    5.7357  -19.4285 C   0  0  0  0  0  0  0  0  0  0  0  0
   -4.8489    5.6408  -20.3743 C   0  0  0  0  0  0  0  0  0  0  0  0
   -4.5678    5.3379  -21.7010 C   0  0  0  0  0  0  0  0  0  0  0  0
   -3.2510    5.1186  -22.0550 C   0  0  0  0  0  0  0  0  0  0  0  0
   -2.2301    5.1729  -21.1820 N   0  0  0  0  0  0  0  0  0  0  0  0
   -2.5341    5.4648  -19.8958 C   0  0  0  0  0  0  0  0  0  0  0  0
   -2.9996    6.7116  -17.2313 N   0  0  0  0  0  0  0  0  0  0  0  0
   -2.3373    5.6579  -16.4740 C   0  0  0  0  0  0  0  0  0  0  0  0
  1  2  2  0
  2  3  1  0
  3  4  1  0
  4  5  1  6
  5  6  2  0
  6  7  1  0
  7  8  2  0
  8  9  1  0
  9 10  2  0
  4 11  1  0
 11 12  1  0
 12  1  1  0
 10  5  1  0
M  END
>  <tags>  (149) 
openbind_xx01zvns2b_c1_knitwork_impure,BulkDock Fragalysis export,fragmenstein_placed,openbind_xx01zvns2b_c1_scaffolds

>  <placement_batch>  (149) 
openbind_xx01zvns2b_c1_knitwork_impure

>  <inspiration_score>  (149) 
None

>  <name>  (149) 
P59914

>  <HIPPO Pose ID>  (149) 
59914

>  <ref_pdb>  (149) 
Z0852a

>  <inchikey>  (149) 
LOQCBSBWYHSUKK-UHFFFAOYSA-N

>  <alias>  (149) 
None

>  <ref_mols>  (149) 
Z0182a,Z0852a

>  <subsites>  (149) 
1 - Z4590/B/203/1

>  <distance_score>  (149) 
0.90789

>  <HIPPO Compound ID>  (149) 
59159

>  <smiles>  (149) 
C1=CC[C@H](c2cccnc2)NC1

>  <energy_score>  (149) 
-13.121374

$$$$
P59915
     RDKit          3D

 12 14  0  0  0  0  0  0  0  0999 V2000
   -4.7596    5.6879  -21.6326 C   0  0  0  0  0  0  0  0  0  0  0  0
   -3.5735    5.7260  -22.3435 C   0  0  0  0  0  0  0  0  0  0  0  0
   -2.3694    5.4909  -21.7952 N   0  0  0  0  0  0  0  0  0  0  0  0
   -2.3553    5.2045  -20.4720 C   0  0  0  0  0  0  0  0  0  0  0  0
   -3.4837    5.1689  -19.6471 C   0  0  0  0  0  0  0  0  0  0  0  0
   -3.3269    4.8107  -18.1958 C   0  0  1  0  0  0  0  0  0  0  0  0
   -2.3399    5.6563  -17.4931 N   0  0  0  0  0  0  0  0  0  0  0  0
   -2.5969    5.5423  -16.0545 C   0  0  0  0  0  0  0  0  0  0  0  0
   -4.0731    5.3289  -15.9778 C   0  0  1  0  0  0  0  0  0  0  0  0
   -5.0319    6.2385  -16.6958 C   0  0  0  0  0  0  0  0  0  0  0  0
   -4.5556    4.9508  -17.3327 C   0  0  1  0  0  0  0  0  0  0  0  0
   -4.7127    5.4027  -20.2692 C   0  0  0  0  0  0  0  0  0  0  0  0
  1  2  2  0
  2  3  1  0
  3  4  2  0
  4  5  1  0
  6  5  1  6
  6  7  1  0
  7  8  1  0
  9  8  1  6
  9 10  1  0
 11 10  1  6
  5 12  2  0
 12  1  1  0
 11  6  1  0
 11  9  1  0
M  END
>  <tags>  (150) 
openbind_xx01zvns2b_c1_knitwork_impure,fragmenstein_placed,openbind_xx01zvns2b_c1_scaffolds_chemok_bbok,BulkDock Fragalysis export,openbind_xx01zvns2b_c1_scaffolds

>  <placement_batch>  (150) 
openbind_xx01zvns2b_c1_knitwork_impure

>  <inspiration_score>  (150) 
None

>  <name>  (150) 
P59915

>  <HIPPO Pose ID>  (150) 
59915

>  <ref_pdb>  (150) 
Z0852a

>  <inchikey>  (150) 
XLWZRCPLTQVCCY-UHFFFAOYSA-N

>  <alias>  (150) 
None

>  <ref_mols>  (150) 
Z0182a,Z0852a

>  <subsites>  (150) 
1 - Z4590/B/203/1

>  <distance_score>  (150) 
0.967588

>  <HIPPO Compound ID>  (150) 
59162

>  <smiles>  (150) 
c1cncc([C@H]2NC[C@H]3C[C@H]32)c1

>  <energy_score>  (150) 
-14.346811

$$$$
P60073
     RDKit          3D

 19 20  0  0  0  0  0  0  0  0999 V2000
   -3.2681    5.4577  -18.0525 C   0  0  0  0  0  0  0  0  0  0  0  0
   -3.6650    4.7450  -16.7599 C   0  0  0  0  0  0  0  0  0  0  0  0
   -3.4846    5.6575  -15.5465 C   0  0  0  0  0  0  0  0  0  0  0  0
   -3.8776    5.1455  -14.2300 N   0  0  0  0  0  0  0  0  0  0  0  0
   -2.9208    4.2921  -13.5422 C   0  0  0  0  0  0  0  0  0  0  0  0
   -3.0989    2.7822  -13.7105 C   0  0  0  0  0  0  0  0  0  0  0  0
   -2.0848    2.0401  -12.8496 C   0  0  0  0  0  0  0  0  0  0  0  0
   -5.3163    4.9090  -13.9852 C   0  0  0  0  0  0  0  0  0  0  0  0
   -5.7491    4.9493  -12.4806 C   0  0  0  0  0  0  0  0  0  0  0  0
   -7.5748    4.8229  -12.2663 S   0  0  0  0  0  0  0  0  0  0  0  0
   -7.7996    4.9106  -10.5315 C   0  0  0  0  0  0  0  0  0  0  0  0
   -7.7273    6.0665   -9.7237 C   0  0  0  0  0  0  0  0  0  0  0  0
   -8.0335    5.8266   -8.4413 N   0  0  0  0  0  0  0  0  0  0  0  0
   -8.3384    4.5140   -8.4457 N   0  0  0  0  0  0  0  0  0  0  0  0
   -8.2090    3.9153   -9.6701 C   0  0  0  0  0  0  0  0  0  0  0  0
   -8.5537    2.4827   -9.8421 C   0  0  0  0  0  0  0  0  0  0  0  0
   -8.5829    1.7684   -8.5649 N   0  0  0  0  0  0  0  0  0  0  0  0
   -9.3378    2.4731   -7.5380 C   0  0  0  0  0  0  0  0  0  0  0  0
   -8.7289    3.8347   -7.2234 C   0  0  0  0  0  0  0  0  0  0  0  0
  1  2  1  0
  2  3  1  0
  3  4  1  0
  4  5  1  0
  5  6  1  0
  6  7  1  0
  4  8  1  0
  8  9  1  0
  9 10  1  0
 10 11  1  0
 11 12  1  0
 12 13  2  0
 13 14  1  0
 14 15  1  0
 15 16  1  0
 16 17  1  0
 17 18  1  0
 18 19  1  0
 15 11  2  0
 19 14  1  0
M  END
>  <tags>  (151) 
openbind_xx01zvns2b_c1_knitwork_impure,BulkDock Fragalysis export,fragmenstein_placed,openbind_xx01zvns2b_c1_scaffolds

>  <placement_batch>  (151) 
openbind_xx01zvns2b_c1_knitwork_impure

>  <inspiration_score>  (151) 
None

>  <name>  (151) 
P60073

>  <HIPPO Pose ID>  (151) 
60073

>  <ref_pdb>  (151) 
Z0969a

>  <inchikey>  (151) 
FTQNISICHUKXSQ-UHFFFAOYSA-N

>  <alias>  (151) 
None

>  <ref_mols>  (151) 
Z0969a,Z0472a

>  <subsites>  (151) 
1 - Z4590/B/203/1

>  <distance_score>  (151) 
0.944612

>  <HIPPO Compound ID>  (151) 
107415

>  <smiles>  (151) 
CCCN(CCC)CCSc1cnn2c1CNCC2

>  <energy_score>  (151) 
-45.628774

$$$$
P60074
     RDKit          3D

 17 18  0  0  0  0  0  0  0  0999 V2000
   -3.6932    5.3827  -18.5058 C   0  0  0  0  0  0  0  0  0  0  0  0
   -3.9639    5.5544  -17.0461 C   0  0  0  0  0  0  0  0  0  0  0  0
   -5.1882    5.6926  -16.5037 C   0  0  0  0  0  0  0  0  0  0  0  0
   -5.4148    5.9711  -15.0311 C   0  0  0  0  0  0  0  0  0  0  0  0
   -6.5887    5.1897  -14.3785 C   0  0  0  0  0  0  0  0  0  0  0  0
   -6.6275    5.3090  -12.8815 N   0  0  0  0  0  0  0  0  0  0  0  0
   -5.6170    4.4118  -12.2940 C   0  0  0  0  0  0  0  0  0  0  0  0
   -7.9804    4.9420  -12.3726 C   0  0  0  0  0  0  0  0  0  0  0  0
   -8.1209    5.0081  -10.8740 C   0  0  0  0  0  0  0  0  0  0  0  0
   -8.1054    6.1412  -10.0183 C   0  0  0  0  0  0  0  0  0  0  0  0
   -8.3257    5.8444   -8.7299 N   0  0  0  0  0  0  0  0  0  0  0  0
   -8.4757    4.5060   -8.7502 N   0  0  0  0  0  0  0  0  0  0  0  0
   -8.3739    3.9621  -10.0001 C   0  0  0  0  0  0  0  0  0  0  0  0
   -8.5627    2.5056  -10.1997 C   0  0  0  0  0  0  0  0  0  0  0  0
   -8.3464    1.7835   -8.9575 N   0  0  0  0  0  0  0  0  0  0  0  0
   -9.1323    2.3178   -7.8524 C   0  0  0  0  0  0  0  0  0  0  0  0
   -8.6966    3.7478   -7.5302 C   0  0  0  0  0  0  0  0  0  0  0  0
  1  2  1  0
  2  3  2  3
  3  4  1  0
  4  5  1  0
  5  6  1  0
  6  7  1  0
  6  8  1  0
  8  9  1  0
  9 10  1  0
 10 11  2  0
 11 12  1  0
 12 13  1  0
 13 14  1  0
 14 15  1  0
 15 16  1  0
 16 17  1  0
 13  9  2  0
 17 12  1  0
M  END
>  <tags>  (152) 
openbind_xx01zvns2b_c1_knitwork_impure,BulkDock Fragalysis export,fragmenstein_placed,openbind_xx01zvns2b_c1_scaffolds

>  <placement_batch>  (152) 
openbind_xx01zvns2b_c1_knitwork_impure

>  <inspiration_score>  (152) 
None

>  <name>  (152) 
P60074

>  <HIPPO Pose ID>  (152) 
60074

>  <ref_pdb>  (152) 
Z0969a

>  <inchikey>  (152) 
DURQJDODSHTIEN-UHFFFAOYSA-N

>  <alias>  (152) 
None

>  <ref_mols>  (152) 
Z0969a,Z0472a

>  <subsites>  (152) 
1 - Z4590/B/203/1

>  <distance_score>  (152) 
0.920767

>  <HIPPO Compound ID>  (152) 
107417

>  <smiles>  (152) 
CC=CCCN(C)Cc1cnn2c1CNCC2

>  <energy_score>  (152) 
-49.822352

$$$$
P60080
     RDKit          3D

 22 23  0  0  0  0  0  0  0  0999 V2000
   -7.9733    2.5288   -9.9391 C   0  0  0  0  0  0  0  0  0  0  0  0
   -7.3129    3.7178  -10.5886 C   0  0  0  0  0  0  0  0  0  0  0  0
   -7.9898    5.0311  -10.3253 C   0  0  0  0  0  0  0  0  0  0  0  0
   -6.3358    3.5907  -11.4571 C   0  0  0  0  0  0  0  0  0  0  0  0
   -5.3932    3.4251  -12.3534 C   0  0  0  0  0  0  0  0  0  0  0  0
   -3.9560    3.9606  -12.2931 C   0  0  0  0  0  0  0  0  0  0  0  0
   -3.9981    5.5010  -12.2713 C   0  0  0  0  0  0  0  0  0  0  0  0
   -3.3220    3.5116  -10.9509 C   0  0  0  0  0  0  0  0  0  0  0  0
   -3.0186    3.4679  -13.4980 C   0  0  1  0  0  0  0  0  0  0  0  0
   -2.8188    1.9425  -13.4749 C   0  0  0  0  0  0  0  0  0  0  0  0
   -3.4473    3.7584  -14.8774 N   0  0  0  0  0  0  0  0  0  0  0  0
   -2.8302    4.9041  -15.5585 C   0  0  0  0  0  0  0  0  0  0  0  0
   -3.5849    5.2228  -16.8922 C   0  0  0  0  0  0  0  0  0  0  0  0
   -5.0341    5.1164  -16.7176 N   0  0  0  0  0  0  0  0  0  0  0  0
   -5.6350    6.1442  -15.8624 C   0  0  0  0  0  0  0  0  0  0  0  0
   -6.9359    5.5760  -15.2931 C   0  0  0  0  0  0  0  0  0  0  0  0
   -7.7126    4.9860  -16.3637 N   0  0  0  0  0  0  0  0  0  0  0  0
   -9.0062    4.6918  -16.1928 N   0  0  0  0  0  0  0  0  0  0  0  0
   -9.3897    4.2794  -17.4053 C   0  0  0  0  0  0  0  0  0  0  0  0
   -8.3272    4.2808  -18.3314 C   0  0  0  0  0  0  0  0  0  0  0  0
   -7.2381    4.7362  -17.6216 C   0  0  0  0  0  0  0  0  0  0  0  0
   -5.8066    4.9842  -17.9637 C   0  0  0  0  0  0  0  0  0  0  0  0
  1  2  1  0
  2  3  1  0
  2  4  2  0
  4  5  2  0
  5  6  1  0
  6  7  1  0
  6  8  1  0
  6  9  1  0
  9 10  1  6
  9 11  1  0
 11 12  1  0
 12 13  1  0
 13 14  1  0
 14 15  1  0
 15 16  1  0
 16 17  1  0
 17 18  1  0
 18 19  2  0
 19 20  1  0
 20 21  2  0
 21 22  1  0
 22 14  1  0
 21 17  1  0
M  END
>  <tags>  (153) 
openbind_xx01zvns2b_c1_knitwork_impure,BulkDock Fragalysis export,fragmenstein_placed,openbind_xx01zvns2b_c1_scaffolds

>  <placement_batch>  (153) 
openbind_xx01zvns2b_c1_knitwork_impure

>  <inspiration_score>  (153) 
None

>  <name>  (153) 
P60080

>  <HIPPO Pose ID>  (153) 
60080

>  <ref_pdb>  (153) 
Z0969a

>  <inchikey>  (153) 
LHGWJWRGUFOVEK-UHFFFAOYSA-N

>  <alias>  (153) 
None

>  <ref_mols>  (153) 
Z0969a,Z0472a

>  <subsites>  (153) 
1 - Z4590/B/203/1

>  <distance_score>  (153) 
0.866312

>  <HIPPO Compound ID>  (153) 
107433

>  <smiles>  (153) 
CC(C)=C=CC(C)(C)[C@@H](C)NCCN1CCn2nccc2C1

>  <energy_score>  (153) 
-61.199584

$$$$
P60086
     RDKit          3D

 23 26  0  0  0  0  0  0  0  0999 V2000
   -7.0226    6.3796  -13.6755 O   0  0  0  0  0  0  0  0  0  0  0  0
   -7.4311    5.2965  -13.8489 C   0  0  0  0  0  0  0  0  0  0  0  0
   -7.9000    4.2210  -12.8280 N   0  0  0  0  0  0  0  0  0  0  0  0
   -8.0467    4.2905  -11.4387 C   0  0  0  0  0  0  0  0  0  0  0  0
   -7.7856    5.4749  -10.7525 C   0  0  0  0  0  0  0  0  0  0  0  0
   -7.9347    5.5410   -9.3644 C   0  0  0  0  0  0  0  0  0  0  0  0
   -8.3457    4.4186   -8.6383 C   0  0  0  0  0  0  0  0  0  0  0  0
   -8.6323    3.2256   -9.3189 C   0  0  0  0  0  0  0  0  0  0  0  0
   -8.4673    3.1679  -10.7196 C   0  0  0  0  0  0  0  0  0  0  0  0
   -9.0602    2.0016   -8.5416 C   0  0  0  0  0  0  0  0  0  0  0  0
   -9.6941    2.3141   -7.2520 N   0  0  0  0  0  0  0  0  0  0  0  0
   -8.8262    3.1750   -6.4593 C   0  0  0  0  0  0  0  0  0  0  0  0
   -8.5511    4.5152   -7.1465 C   0  0  0  0  0  0  0  0  0  0  0  0
   -7.6179    4.8434  -15.2586 C   0  0  0  0  0  0  0  0  0  0  0  0
   -8.9047    4.4507  -15.6432 C   0  0  0  0  0  0  0  0  0  0  0  0
   -9.2181    4.2501  -16.9824 C   0  0  0  0  0  0  0  0  0  0  0  0
   -8.2355    4.4274  -17.9426 C   0  0  0  0  0  0  0  0  0  0  0  0
   -6.9371    4.7885  -17.5591 C   0  0  0  0  0  0  0  0  0  0  0  0
   -5.9565    4.9637  -18.5356 C   0  0  0  0  0  0  0  0  0  0  0  0
   -4.6703    5.3066  -18.1590 C   0  0  0  0  0  0  0  0  0  0  0  0
   -4.4046    5.4680  -16.8175 C   0  0  0  0  0  0  0  0  0  0  0  0
   -5.3279    5.3198  -15.8480 N   0  0  0  0  0  0  0  0  0  0  0  0
   -6.5943    4.9944  -16.1987 C   0  0  0  0  0  0  0  0  0  0  0  0
  1  2  2  0
  2  3  1  0
  3  4  1  0
  4  5  2  0
  5  6  1  0
  6  7  2  0
  7  8  1  0
  8  9  2  0
  8 10  1  0
 10 11  1  0
 11 12  1  0
 12 13  1  0
  2 14  1  0
 14 15  2  0
 15 16  1  0
 16 17  2  0
 17 18  1  0
 18 19  2  0
 19 20  1  0
 20 21  2  0
 21 22  1  0
 22 23  2  0
  9  4  1  0
 23 14  1  0
 13  7  1  0
 23 18  1  0
M  END
>  <tags>  (154) 
openbind_xx01zvns2b_c1_knitwork_impure,BulkDock Fragalysis export,fragmenstein_placed,openbind_xx01zvns2b_c1_scaffolds

>  <placement_batch>  (154) 
openbind_xx01zvns2b_c1_knitwork_impure

>  <inspiration_score>  (154) 
None

>  <name>  (154) 
P60086

>  <HIPPO Pose ID>  (154) 
60086

>  <ref_pdb>  (154) 
Z1716a

>  <inchikey>  (154) 
MCHOEOZPYSCYND-UHFFFAOYSA-N

>  <alias>  (154) 
None

>  <ref_mols>  (154) 
Z3476a,Z3596a,Z1716a,Z3515a

>  <subsites>  (154) 
1 - Z4590/B/203/1

>  <distance_score>  (154) 
0.761122

>  <HIPPO Compound ID>  (154) 
62081

>  <smiles>  (154) 
O=C(Nc1ccc2c(c1)CNCC2)c1cccc2cccnc12

>  <energy_score>  (154) 
-23.788292

$$$$
P60256
     RDKit          3D

 15 15  0  0  0  0  0  0  0  0999 V2000
   -9.1340    3.8743  -17.8299 C   0  0  0  0  0  0  0  0  0  0  0  0
   -7.9432    4.6545  -18.3606 C   0  0  0  0  0  0  0  0  0  0  0  0
   -6.6181    4.3069  -17.7156 C   0  0  2  0  0  0  0  0  0  0  0  0
   -6.4957    4.4170  -16.2734 N   0  0  0  0  0  0  0  0  0  0  0  0
   -7.4297    5.1001  -15.2266 C   0  0  0  0  0  0  0  0  0  0  0  0
   -8.3972    5.7426  -15.3785 O   0  0  0  0  0  0  0  0  0  0  0  0
   -6.8531    4.7760  -13.8152 C   0  0  0  0  0  0  0  0  0  0  0  0
   -7.8067    4.3591  -12.9425 F   0  0  0  0  0  0  0  0  0  0  0  0
   -6.2680    5.8755  -13.2623 F   0  0  0  0  0  0  0  0  0  0  0  0
   -5.8790    3.8227  -13.8440 F   0  0  0  0  0  0  0  0  0  0  0  0
   -5.4240    4.8727  -18.4777 C   0  0  0  0  0  0  0  0  0  0  0  0
   -5.2768    4.7467  -19.7879 N   0  0  0  0  0  0  0  0  0  0  0  0
   -4.0478    5.2263  -20.1879 C   0  0  0  0  0  0  0  0  0  0  0  0
   -3.2439    5.7010  -19.1791 C   0  0  0  0  0  0  0  0  0  0  0  0
   -4.0677    5.5883  -17.6823 S   0  0  0  0  0  0  0  0  0  0  0  0
  1  2  1  0
  3  2  1  6
  3  4  1  0
  4  5  1  0
  5  6  2  0
  5  7  1  0
  7  8  1  0
  7  9  1  0
  7 10  1  0
  3 11  1  0
 11 12  2  0
 12 13  1  0
 13 14  2  0
 14 15  1  0
 15 11  1  0
M  END
>  <tags>  (155) 
openbind_xx01zvns2b_c1_knitwork_impure,fragmenstein_placed,openbind_xx01zvns2b_c1_scaffolds_chemok_bbok,BulkDock Fragalysis export,openbind_xx01zvns2b_c1_scaffolds

>  <placement_batch>  (155) 
openbind_xx01zvns2b_c1_knitwork_impure

>  <inspiration_score>  (155) 
None

>  <name>  (155) 
P60256

>  <HIPPO Pose ID>  (155) 
60256

>  <ref_pdb>  (155) 
Z1274a

>  <inchikey>  (155) 
DELLSPFKHJWOLO-UHFFFAOYSA-N

>  <alias>  (155) 
None

>  <ref_mols>  (155) 
Z0719a,Z1274a

>  <subsites>  (155) 
1 - Z4590/B/203/1

>  <distance_score>  (155) 
0.860786

>  <HIPPO Compound ID>  (155) 
57861

>  <smiles>  (155) 
CC[C@H](NC(=O)C(F)(F)F)c1nccs1

>  <energy_score>  (155) 
-23.868587

$$$$
P60317
     RDKit          3D

 17 18  0  0  0  0  0  0  0  0999 V2000
   -1.7711    4.6101  -19.9888 C   0  0  0  0  0  0  0  0  0  0  0  0
   -2.3096    5.7623  -19.1938 C   0  0  0  0  0  0  0  0  0  0  0  0
   -1.2992    6.4517  -18.3339 C   0  0  0  0  0  0  0  0  0  0  0  0
   -3.5987    6.1319  -19.2779 C   0  0  0  0  0  0  0  0  0  0  0  0
   -4.3236    7.1338  -18.4082 C   0  0  0  0  0  0  0  0  0  0  0  0
   -4.2096    6.9907  -16.8728 C   0  0  0  0  0  0  0  0  0  0  0  0
   -4.2938    5.6124  -16.3399 N   0  0  0  0  0  0  0  0  0  0  0  0
   -5.6087    5.2669  -15.9584 C   0  0  0  0  0  0  0  0  0  0  0  0
   -5.8715    5.4153  -14.6511 N   0  0  0  0  0  0  0  0  0  0  0  0
   -7.1409    5.1908  -14.2858 C   0  0  0  0  0  0  0  0  0  0  0  0
   -8.1636    4.8848  -15.0928 N   0  0  0  0  0  0  0  0  0  0  0  0
   -7.8693    4.6911  -16.3841 C   0  0  0  0  0  0  0  0  0  0  0  0
   -8.8748    4.3392  -17.2789 C   0  0  0  0  0  0  0  0  0  0  0  0
   -8.6233    4.1497  -18.6402 C   0  0  0  0  0  0  0  0  0  0  0  0
   -7.3289    4.2354  -19.1159 C   0  0  0  0  0  0  0  0  0  0  0  0
   -6.3113    4.5427  -18.2285 C   0  0  0  0  0  0  0  0  0  0  0  0
   -6.5739    4.8445  -16.8800 C   0  0  0  0  0  0  0  0  0  0  0  0
  1  2  1  0
  2  3  1  0
  2  4  2  3
  4  5  1  0
  5  6  1  0
  6  7  1  0
  7  8  1  0
  8  9  2  0
  9 10  1  0
 10 11  2  0
 11 12  1  0
 12 13  2  0
 13 14  1  0
 14 15  2  0
 15 16  1  0
 16 17  2  0
 17  8  1  0
 17 12  1  0
M  END
>  <tags>  (156) 
openbind_xx01zvns2b_c1_knitwork_impure,fragmenstein_placed,openbind_xx01zvns2b_c1_scaffolds_chemok_bbok,BulkDock Fragalysis export,openbind_xx01zvns2b_c1_scaffolds

>  <placement_batch>  (156) 
openbind_xx01zvns2b_c1_knitwork_impure

>  <inspiration_score>  (156) 
None

>  <name>  (156) 
P60317

>  <HIPPO Pose ID>  (156) 
60317

>  <ref_pdb>  (156) 
Z1719a

>  <inchikey>  (156) 
SMDNEZKNLHJSTK-UHFFFAOYSA-N

>  <alias>  (156) 
None

>  <ref_mols>  (156) 
Z0089a,Z1719a

>  <subsites>  (156) 
1 - Z4590/B/203/1

>  <distance_score>  (156) 
0.830896

>  <HIPPO Compound ID>  (156) 
107813

>  <smiles>  (156) 
CC(C)=CCCNc1ncnc2ccccc12

>  <energy_score>  (156) 
-12.640455

$$$$
P60321
     RDKit          3D

 18 19  0  0  0  0  0  0  0  0999 V2000
   -1.4388    6.6386  -16.7898 C   0  0  0  0  0  0  0  0  0  0  0  0
   -2.6679    6.2212  -17.6202 C   0  0  2  0  0  0  0  0  0  0  0  0
   -3.4718    5.1778  -16.8037 C   0  0  0  0  0  0  0  0  0  0  0  0
   -4.3597    5.9106  -15.8943 N   0  0  0  0  0  0  0  0  0  0  0  0
   -5.6229    5.3809  -15.6259 C   0  0  0  0  0  0  0  0  0  0  0  0
   -5.8771    5.2361  -14.3169 N   0  0  0  0  0  0  0  0  0  0  0  0
   -7.0854    4.7506  -14.0036 C   0  0  0  0  0  0  0  0  0  0  0  0
   -8.0512    4.3998  -14.8573 N   0  0  0  0  0  0  0  0  0  0  0  0
   -7.7775    4.5260  -16.1577 C   0  0  0  0  0  0  0  0  0  0  0  0
   -8.7208    4.1192  -17.0959 C   0  0  0  0  0  0  0  0  0  0  0  0
   -8.4812    4.1999  -18.4679 C   0  0  0  0  0  0  0  0  0  0  0  0
   -7.3049    4.7702  -18.9136 C   0  0  0  0  0  0  0  0  0  0  0  0
   -6.4011    5.2704  -17.9916 C   0  0  0  0  0  0  0  0  0  0  0  0
   -6.5725    5.0672  -16.6116 C   0  0  0  0  0  0  0  0  0  0  0  0
   -2.3197    5.7978  -19.0929 C   0  0  0  0  0  0  0  0  0  0  0  0
   -1.4887    6.9103  -19.7621 C   0  0  0  0  0  0  0  0  0  0  0  0
   -1.5318    4.4869  -19.1793 C   0  0  0  0  0  0  0  0  0  0  0  0
   -3.5806    5.6294  -19.9564 C   0  0  0  0  0  0  0  0  0  0  0  0
  2  1  1  1
  2  3  1  0
  3  4  1  0
  4  5  1  0
  5  6  2  0
  6  7  1  0
  7  8  2  0
  8  9  1  0
  9 10  2  0
 10 11  1  0
 11 12  2  0
 12 13  1  0
 13 14  2  0
  2 15  1  0
 15 16  1  0
 15 17  1  0
 15 18  1  0
 14  5  1  0
 14  9  1  0
M  END
>  <tags>  (157) 
openbind_xx01zvns2b_c1_knitwork_impure,fragmenstein_placed,openbind_xx01zvns2b_c1_scaffolds_chemok_bbok,BulkDock Fragalysis export,openbind_xx01zvns2b_c1_scaffolds

>  <placement_batch>  (157) 
openbind_xx01zvns2b_c1_knitwork_impure

>  <inspiration_score>  (157) 
None

>  <name>  (157) 
P60321

>  <HIPPO Pose ID>  (157) 
60321

>  <ref_pdb>  (157) 
Z1719a

>  <inchikey>  (157) 
RTELSDHDRPUXMX-UHFFFAOYSA-N

>  <alias>  (157) 
None

>  <ref_mols>  (157) 
Z0089a,Z1719a

>  <subsites>  (157) 
1 - Z4590/B/203/1

>  <distance_score>  (157) 
0.823218

>  <HIPPO Compound ID>  (157) 
107826

>  <smiles>  (157) 
C[C@H](CNc1ncnc2ccccc12)C(C)(C)C

>  <energy_score>  (157) 
-42.871989

$$$$
P60322
     RDKit          3D

 17 18  0  0  0  0  0  0  0  0999 V2000
   -1.2636    4.9510  -19.5436 C   0  0  0  0  0  0  0  0  0  0  0  0
   -2.6090    5.4472  -19.0097 C   0  0  0  0  0  0  0  0  0  0  0  0
   -3.3761    6.0671  -20.1715 C   0  0  0  0  0  0  0  0  0  0  0  0
   -2.3974    6.4386  -17.8506 C   0  0  0  0  0  0  0  0  0  0  0  0
   -3.5922    6.6821  -16.8879 C   0  0  1  0  0  0  0  0  0  0  0  0
   -4.6593    7.6127  -17.4537 C   0  0  0  0  0  0  0  0  0  0  0  0
   -4.0446    5.3857  -16.3315 N   0  0  0  0  0  0  0  0  0  0  0  0
   -5.3872    5.2197  -15.9652 C   0  0  0  0  0  0  0  0  0  0  0  0
   -5.6239    5.3404  -14.6500 N   0  0  0  0  0  0  0  0  0  0  0  0
   -6.8966    5.1648  -14.2675 C   0  0  0  0  0  0  0  0  0  0  0  0
   -7.9425    4.8978  -15.0574 N   0  0  0  0  0  0  0  0  0  0  0  0
   -7.6805    4.7290  -16.3578 C   0  0  0  0  0  0  0  0  0  0  0  0
   -8.7159    4.3867  -17.2223 C   0  0  0  0  0  0  0  0  0  0  0  0
   -8.5115    4.2133  -18.5929 C   0  0  0  0  0  0  0  0  0  0  0  0
   -7.2376    4.3414  -19.1134 C   0  0  0  0  0  0  0  0  0  0  0  0
   -6.1898    4.6553  -18.2612 C   0  0  0  0  0  0  0  0  0  0  0  0
   -6.3947    4.8845  -16.8855 C   0  0  0  0  0  0  0  0  0  0  0  0
  1  2  1  0
  2  3  1  0
  2  4  1  0
  4  5  1  0
  5  6  1  6
  5  7  1  0
  7  8  1  0
  8  9  2  0
  9 10  1  0
 10 11  2  0
 11 12  1  0
 12 13  2  0
 13 14  1  0
 14 15  2  0
 15 16  1  0
 16 17  2  0
 17  8  1  0
 17 12  1  0
M  END
>  <tags>  (158) 
openbind_xx01zvns2b_c1_knitwork_impure,BulkDock Fragalysis export,fragmenstein_placed,openbind_xx01zvns2b_c1_scaffolds

>  <placement_batch>  (158) 
openbind_xx01zvns2b_c1_knitwork_impure

>  <inspiration_score>  (158) 
None

>  <name>  (158) 
P60322

>  <HIPPO Pose ID>  (158) 
60322

>  <ref_pdb>  (158) 
Z1719a

>  <inchikey>  (158) 
YWKFTGYBDCUQJZ-UHFFFAOYSA-N

>  <alias>  (158) 
None

>  <ref_mols>  (158) 
Z0089a,Z1719a

>  <subsites>  (158) 
1 - Z4590/B/203/1

>  <distance_score>  (158) 
0.834594

>  <HIPPO Compound ID>  (158) 
107829

>  <smiles>  (158) 
CC(C)C[C@@H](C)Nc1ncnc2ccccc12

>  <energy_score>  (158) 
-17.031137

$$$$
P60323
     RDKit          3D

 17 18  0  0  0  0  0  0  0  0999 V2000
   -1.6686    4.7326  -19.7643 F   0  0  0  0  0  0  0  0  0  0  0  0
   -2.4916    5.5953  -19.1304 C   0  0  0  0  0  0  0  0  0  0  0  0
   -3.6582    5.5954  -19.8049 F   0  0  0  0  0  0  0  0  0  0  0  0
   -1.9614    6.8318  -19.2244 F   0  0  0  0  0  0  0  0  0  0  0  0
   -2.6713    5.1916  -17.6967 C   0  0  0  0  0  0  0  0  0  0  0  0
   -3.6300    6.1251  -16.9720 C   0  0  0  0  0  0  0  0  0  0  0  0
   -4.2209    5.3870  -15.8692 N   0  0  0  0  0  0  0  0  0  0  0  0
   -5.5899    5.2017  -15.7465 C   0  0  0  0  0  0  0  0  0  0  0  0
   -5.9888    5.3294  -14.4695 N   0  0  0  0  0  0  0  0  0  0  0  0
   -7.2884    5.1334  -14.2272 C   0  0  0  0  0  0  0  0  0  0  0  0
   -8.2311    4.8613  -15.1299 N   0  0  0  0  0  0  0  0  0  0  0  0
   -7.8232    4.7040  -16.3917 C   0  0  0  0  0  0  0  0  0  0  0  0
   -8.7774    4.3781  -17.3503 C   0  0  0  0  0  0  0  0  0  0  0  0
   -8.4563    4.2318  -18.6994 C   0  0  0  0  0  0  0  0  0  0  0  0
   -7.1419    4.3632  -19.1000 C   0  0  0  0  0  0  0  0  0  0  0  0
   -6.1701    4.6481  -18.1488 C   0  0  0  0  0  0  0  0  0  0  0  0
   -6.4860    4.8622  -16.7839 C   0  0  0  0  0  0  0  0  0  0  0  0
  1  2  1  0
  2  3  1  0
  2  4  1  0
  2  5  1  0
  5  6  1  0
  6  7  1  0
  7  8  1  0
  8  9  2  0
  9 10  1  0
 10 11  2  0
 11 12  1  0
 12 13  2  0
 13 14  1  0
 14 15  2  0
 15 16  1  0
 16 17  2  0
 17  8  1  0
 17 12  1  0
M  END
>  <tags>  (159) 
openbind_xx01zvns2b_c1_knitwork_impure,fragmenstein_placed,openbind_xx01zvns2b_c1_scaffolds_chemok_bbok,BulkDock Fragalysis export,openbind_xx01zvns2b_c1_scaffolds

>  <placement_batch>  (159) 
openbind_xx01zvns2b_c1_knitwork_impure

>  <inspiration_score>  (159) 
None

>  <name>  (159) 
P60323

>  <HIPPO Pose ID>  (159) 
60323

>  <ref_pdb>  (159) 
Z1719a

>  <inchikey>  (159) 
XNEVOPUIRNBWPZ-UHFFFAOYSA-N

>  <alias>  (159) 
None

>  <ref_mols>  (159) 
Z0089a,Z1719a

>  <subsites>  (159) 
1 - Z4590/B/203/1

>  <distance_score>  (159) 
0.65236

>  <HIPPO Compound ID>  (159) 
107832

>  <smiles>  (159) 
FC(F)(F)CCNc1ncnc2ccccc12

>  <energy_score>  (159) 
-13.389498

$$$$
P60346
     RDKit          3D

 23 26  0  0  0  0  0  0  0  0999 V2000
   -8.3634    4.4214  -10.3109 C   0  0  0  0  0  0  0  0  0  0  0  0
   -8.4882    3.3591  -11.1932 C   0  0  0  0  0  0  0  0  0  0  0  0
   -8.0661    3.5172  -12.5085 C   0  0  0  0  0  0  0  0  0  0  0  0
   -7.5266    4.7374  -12.9144 C   0  0  0  0  0  0  0  0  0  0  0  0
   -7.0560    4.9233  -14.2974 C   0  0  0  0  0  0  0  0  0  0  0  0
   -5.7964    5.3625  -14.4724 N   0  0  0  0  0  0  0  0  0  0  0  0
   -5.3314    5.4169  -15.7284 C   0  0  0  0  0  0  0  0  0  0  0  0
   -4.0064    5.8597  -15.9381 N   0  0  0  0  0  0  0  0  0  0  0  0
   -3.2484    6.0978  -14.7104 C   0  0  0  0  0  0  0  0  0  0  0  0
   -1.8407    6.5130  -14.9857 C   0  0  0  0  0  0  0  0  0  0  0  0
   -1.2148    7.7399  -15.0679 C   0  0  0  0  0  0  0  0  0  0  0  0
    0.1408    7.4771  -15.3787 C   0  0  0  0  0  0  0  0  0  0  0  0
    0.2548    6.1101  -15.4710 C   0  0  0  0  0  0  0  0  0  0  0  0
   -0.9426    5.5147  -15.2353 O   0  0  0  0  0  0  0  0  0  0  0  0
   -6.1305    5.0751  -16.8328 C   0  0  0  0  0  0  0  0  0  0  0  0
   -5.7111    5.1365  -18.1826 C   0  0  0  0  0  0  0  0  0  0  0  0
   -6.5699    4.7573  -19.2075 C   0  0  0  0  0  0  0  0  0  0  0  0
   -7.8583    4.3373  -18.9044 C   0  0  0  0  0  0  0  0  0  0  0  0
   -8.2761    4.2886  -17.5750 C   0  0  0  0  0  0  0  0  0  0  0  0
   -7.4310    4.6459  -16.5337 C   0  0  0  0  0  0  0  0  0  0  0  0
   -7.8931    4.5653  -15.2861 N   0  0  0  0  0  0  0  0  0  0  0  0
   -7.3993    5.7889  -12.0538 N   0  0  0  0  0  0  0  0  0  0  0  0
   -7.8226    5.6041  -10.7843 C   0  0  0  0  0  0  0  0  0  0  0  0
  1  2  2  0
  2  3  1  0
  3  4  2  0
  4  5  1  0
  5  6  2  0
  6  7  1  0
  7  8  1  0
  8  9  1  0
  9 10  1  0
 10 11  2  0
 11 12  1  0
 12 13  2  0
 13 14  1  0
  7 15  2  0
 15 16  1  0
 16 17  2  0
 17 18  1  0
 18 19  2  0
 19 20  1  0
 20 21  2  0
  4 22  1  0
 22 23  2  0
 23  1  1  0
 21  5  1  0
 14 10  1  0
 20 15  1  0
M  END
>  <tags>  (160) 
openbind_xx01zvns2b_c1_knitwork_impure,BulkDock Fragalysis export,fragmenstein_placed,openbind_xx01zvns2b_c1_scaffolds

>  <placement_batch>  (160) 
openbind_xx01zvns2b_c1_knitwork_impure

>  <inspiration_score>  (160) 
None

>  <name>  (160) 
P60346

>  <HIPPO Pose ID>  (160) 
60346

>  <ref_pdb>  (160) 
Z1719a

>  <inchikey>  (160) 
RCHIKZLXCMNBGJ-UHFFFAOYSA-N

>  <alias>  (160) 
None

>  <ref_mols>  (160) 
Z0852a,Z1719a

>  <subsites>  (160) 
1 - Z4590/B/203/1

>  <distance_score>  (160) 
0.492752

>  <HIPPO Compound ID>  (160) 
107884

>  <smiles>  (160) 
c1ccc(-c2nc(NCc3ccco3)c3ccccc3n2)nc1

>  <energy_score>  (160) 
-23.401962

$$$$
P60349
     RDKit          3D

 11 12  0  0  0  0  0  0  0  0999 V2000
   -7.5275    5.1969  -16.2047 C   0  0  0  0  0  0  0  0  0  0  0  0
   -8.7339    4.7118  -15.9165 N   0  0  0  0  0  0  0  0  0  0  0  0
   -9.4851    4.3098  -17.3424 S   0  0  0  0  0  0  0  0  0  0  0  0
   -8.1928    4.7639  -18.3558 C   0  0  0  0  0  0  0  0  0  0  0  0
   -7.1718    5.2766  -17.5827 C   0  0  0  0  0  0  0  0  0  0  0  0
   -5.9821    5.7745  -18.0663 N   0  0  0  0  0  0  0  0  0  0  0  0
   -6.1197    7.0111  -18.8799 C   0  0  0  0  0  0  0  0  0  0  0  0
   -4.7693    7.5029  -19.4439 C   0  0  0  0  0  0  0  0  0  0  0  0
   -4.0420    6.4704  -20.2142 N   0  0  0  0  0  0  0  0  0  0  0  0
   -3.8410    5.3264  -19.3055 C   0  0  0  0  0  0  0  0  0  0  0  0
   -5.1588    4.7513  -18.7579 C   0  0  0  0  0  0  0  0  0  0  0  0
  1  2  2  0
  2  3  1  0
  3  4  1  0
  4  5  2  0
  5  6  1  0
  6  7  1  0
  7  8  1  0
  8  9  1  0
  9 10  1  0
 10 11  1  0
  5  1  1  0
 11  6  1  0
M  END
>  <tags>  (161) 
openbind_xx01zvns2b_c1_knitwork_impure,fragmenstein_placed,openbind_xx01zvns2b_c1_scaffolds_chemok_bbok,BulkDock Fragalysis export,openbind_xx01zvns2b_c1_scaffolds

>  <placement_batch>  (161) 
openbind_xx01zvns2b_c1_knitwork_impure

>  <inspiration_score>  (161) 
None

>  <name>  (161) 
P60349

>  <HIPPO Pose ID>  (161) 
60349

>  <ref_pdb>  (161) 
Z0990a

>  <inchikey>  (161) 
KJERQYWTJBTAGL-UHFFFAOYSA-N

>  <alias>  (161) 
None

>  <ref_mols>  (161) 
Z0788b,Z1495a,Z0465a,Z0990a,Z0673a,Z0673b,Z1719a

>  <subsites>  (161) 
1 - Z4590/B/203/1,6 - Z0788/B/302/1

>  <distance_score>  (161) 
0.797559

>  <HIPPO Compound ID>  (161) 
62473

>  <smiles>  (161) 
c1nscc1N1CCNCC1

>  <energy_score>  (161) 
-31.886229

$$$$
P60351
     RDKit          3D

 11 12  0  0  0  0  0  0  0  0999 V2000
   -8.9606    4.4099  -16.4003 C   0  0  0  0  0  0  0  0  0  0  0  0
   -9.4007    3.9171  -17.5353 N   0  0  0  0  0  0  0  0  0  0  0  0
   -8.4370    4.3132  -18.4295 C   0  0  0  0  0  0  0  0  0  0  0  0
   -7.4301    5.0052  -17.7850 C   0  0  0  0  0  0  0  0  0  0  0  0
   -6.2245    5.5150  -18.1530 N   0  0  0  0  0  0  0  0  0  0  0  0
   -6.0199    6.9513  -17.9193 C   0  0  0  0  0  0  0  0  0  0  0  0
   -4.5297    7.3236  -18.1173 C   0  0  0  0  0  0  0  0  0  0  0  0
   -3.9351    6.8800  -19.3947 N   0  0  0  0  0  0  0  0  0  0  0  0
   -4.2190    5.4422  -19.5787 C   0  0  0  0  0  0  0  0  0  0  0  0
   -5.7206    5.1095  -19.4803 C   0  0  0  0  0  0  0  0  0  0  0  0
   -7.7938    5.1091  -16.4708 O   0  0  0  0  0  0  0  0  0  0  0  0
  1  2  2  0
  2  3  1  0
  3  4  2  0
  4  5  1  0
  5  6  1  0
  6  7  1  0
  7  8  1  0
  8  9  1  0
  9 10  1  0
  4 11  1  0
 11  1  1  0
 10  5  1  0
M  END
>  <tags>  (162) 
openbind_xx01zvns2b_c1_knitwork_impure,fragmenstein_placed,openbind_xx01zvns2b_c1_scaffolds_chemok_bbok,BulkDock Fragalysis export,openbind_xx01zvns2b_c1_scaffolds

>  <placement_batch>  (162) 
openbind_xx01zvns2b_c1_knitwork_impure

>  <inspiration_score>  (162) 
None

>  <name>  (162) 
P60351

>  <HIPPO Pose ID>  (162) 
60351

>  <ref_pdb>  (162) 
Z0990a

>  <inchikey>  (162) 
ZDRJPGANMJIREI-UHFFFAOYSA-N

>  <alias>  (162) 
None

>  <ref_mols>  (162) 
Z0788b,Z1495a,Z0465a,Z0990a,Z0673a,Z0673b,Z1719a

>  <subsites>  (162) 
1 - Z4590/B/203/1,6 - Z0788/B/302/1

>  <distance_score>  (162) 
0.771851

>  <HIPPO Compound ID>  (162) 
62478

>  <smiles>  (162) 
c1ncc(N2CCNCC2)o1

>  <energy_score>  (162) 
-34.610894

$$$$
P60435
     RDKit          3D

 24 26  0  0  0  0  0  0  0  0999 V2000
   -3.7394    8.2157  -15.2595 O   0  0  0  0  0  0  0  0  0  0  0  0
   -3.9281    7.0990  -15.5310 C   0  0  0  0  0  0  0  0  0  0  0  0
   -5.1254    6.1917  -15.2292 N   0  0  0  0  0  0  0  0  0  0  0  0
   -6.3906    6.4877  -14.6110 C   0  0  0  0  0  0  0  0  0  0  0  0
   -7.5059    5.4076  -14.7569 C   0  0  2  0  0  0  0  0  0  0  0  0
   -7.1641    4.2543  -13.9289 N   0  0  0  0  0  0  0  0  0  0  0  0
   -7.8436    4.1695  -12.6162 C   0  0  2  0  0  0  0  0  0  0  0  0
   -7.4919    5.3296  -11.6745 C   0  0  0  0  0  0  0  0  0  0  0  0
   -7.9742    5.1414  -10.2313 C   0  0  0  0  0  0  0  0  0  0  0  0
   -8.3249    3.7015   -9.8800 C   0  0  0  0  0  0  0  0  0  0  0  0
   -7.5134    2.7664  -10.6059 N   0  0  0  0  0  0  0  0  0  0  0  0
   -7.4069    2.8401  -11.9706 C   0  0  0  0  0  0  0  0  0  0  0  0
   -7.0063    1.8813  -12.6283 O   0  0  0  0  0  0  0  0  0  0  0  0
   -7.8652    4.9843  -16.1872 C   0  0  0  0  0  0  0  0  0  0  0  0
   -7.0898    5.2361  -17.3273 C   0  0  0  0  0  0  0  0  0  0  0  0
   -7.5107    4.8479  -18.6011 C   0  0  0  0  0  0  0  0  0  0  0  0
   -8.7492    4.2515  -18.7784 C   0  0  0  0  0  0  0  0  0  0  0  0
   -9.5451    4.0002  -17.6734 C   0  0  0  0  0  0  0  0  0  0  0  0
   -9.0858    4.3223  -16.3933 C   0  0  0  0  0  0  0  0  0  0  0  0
   -2.9715    6.3563  -16.3826 C   0  0  0  0  0  0  0  0  0  0  0  0
   -1.6390    6.7247  -16.6869 C   0  0  0  0  0  0  0  0  0  0  0  0
   -1.2223    5.8335  -17.6433 C   0  0  0  0  0  0  0  0  0  0  0  0
   -2.2773    4.9991  -17.8631 N   0  0  0  0  0  0  0  0  0  0  0  0
   -3.3390    5.2607  -17.0833 N   0  0  0  0  0  0  0  0  0  0  0  0
  1  2  2  0
  2  3  1  0
  3  4  1  0
  5  4  1  6
  5  6  1  0
  7  6  1  6
  7  8  1  0
  8  9  1  0
  9 10  1  0
 10 11  1  0
 11 12  1  0
 12 13  2  0
  5 14  1  0
 14 15  2  0
 15 16  1  0
 16 17  2  0
 17 18  1  0
 18 19  2  0
  2 20  1  0
 20 21  1  0
 21 22  2  0
 22 23  1  0
 23 24  1  0
 12  7  1  0
 19 14  1  0
 24 20  2  0
M  END
>  <tags>  (163) 
openbind_xx01zvns2b_c1_knitwork_impure,BulkDock Fragalysis export,fragmenstein_placed,openbind_xx01zvns2b_c1_scaffolds

>  <placement_batch>  (163) 
openbind_xx01zvns2b_c1_knitwork_impure

>  <inspiration_score>  (163) 
None

>  <name>  (163) 
P60435

>  <HIPPO Pose ID>  (163) 
60435

>  <ref_pdb>  (163) 
Z0673a

>  <inchikey>  (163) 
WWGGAYIMACBGTH-UHFFFAOYSA-N

>  <alias>  (163) 
None

>  <ref_mols>  (163) 
Z1098a,Z1342a,Z0673a

>  <subsites>  (163) 
1 - Z4590/B/203/1

>  <distance_score>  (163) 
0.958192

>  <HIPPO Compound ID>  (163) 
107987

>  <smiles>  (163) 
O=C(NC[C@H](N[C@@H]1CCCNC1=O)c1ccccc1)c1cc[nH]n1

>  <energy_score>  (163) 
-23.679372

$$$$
P60475
     RDKit          3D

 15 16  0  0  0  0  0  0  0  0999 V2000
   -3.3284    3.3569  -14.1096 C   0  0  0  0  0  0  0  0  0  0  0  0
   -4.1824    3.1436  -12.8629 C   0  0  0  0  0  0  0  0  0  0  0  0
   -5.5870    2.6125  -13.1763 C   0  0  2  0  0  0  0  0  0  0  0  0
   -6.3479    3.4847  -14.0761 N   0  0  0  0  0  0  0  0  0  0  0  0
   -6.5423    4.8761  -13.6684 C   0  0  0  0  0  0  0  0  0  0  0  0
   -7.7802    5.5179  -14.3207 C   0  0  0  0  0  0  0  0  0  0  0  0
   -7.9173    5.2020  -15.7686 C   0  0  0  0  0  0  0  0  0  0  0  0
   -8.9339    4.5916  -16.4688 C   0  0  0  0  0  0  0  0  0  0  0  0
   -8.6091    4.4458  -17.7856 N   0  0  0  0  0  0  0  0  0  0  0  0
   -7.3981    4.9376  -17.9016 C   0  0  0  0  0  0  0  0  0  0  0  0
   -6.9310    5.3985  -16.7043 N   0  0  0  0  0  0  0  0  0  0  0  0
   -6.4026    2.2262  -11.9402 C   0  0  0  0  0  0  0  0  0  0  0  0
   -6.7264    3.2093  -10.7919 C   0  0  0  0  0  0  0  0  0  0  0  0
   -6.6414    2.0785   -9.8455 N   0  0  0  0  0  0  0  0  0  0  0  0
   -5.7398    1.3911  -10.8057 C   0  0  0  0  0  0  0  0  0  0  0  0
  1  2  1  0
  3  2  1  1
  3  4  1  0
  4  5  1  0
  5  6  1  0
  6  7  1  0
  7  8  2  0
  8  9  1  0
  9 10  2  0
 10 11  1  0
  3 12  1  0
 12 13  1  0
 13 14  1  0
 14 15  1  0
 11  7  1  0
 15 12  1  0
M  END
>  <tags>  (164) 
openbind_xx01zvns2b_c1_knitwork_impure,BulkDock Fragalysis export,fragmenstein_placed,openbind_xx01zvns2b_c1_scaffolds

>  <placement_batch>  (164) 
openbind_xx01zvns2b_c1_knitwork_impure

>  <inspiration_score>  (164) 
None

>  <name>  (164) 
P60475

>  <HIPPO Pose ID>  (164) 
60475

>  <ref_pdb>  (164) 
Z0719a

>  <inchikey>  (164) 
WNZUTVUHDCPUOP-UHFFFAOYSA-N

>  <alias>  (164) 
None

>  <ref_mols>  (164) 
Z0917a,Z0719a

>  <subsites>  (164) 
1 - Z4590/B/203/1

>  <distance_score>  (164) 
0.792933

>  <HIPPO Compound ID>  (164) 
60011

>  <smiles>  (164) 
CC[C@H](NCCc1cnc[nH]1)C1CNC1

>  <energy_score>  (164) 
-32.257301

$$$$
P60557
     RDKit          3D

 15 17  0  0  0  0  0  0  0  0999 V2000
   -4.4340    5.4881  -12.3710 C   0  0  0  0  0  0  0  0  0  0  0  0
   -3.5077    6.3385  -12.9785 C   0  0  0  0  0  0  0  0  0  0  0  0
   -3.6624    6.4007  -14.2998 N   0  0  0  0  0  0  0  0  0  0  0  0
   -4.7473    5.6103  -14.5717 N   0  0  0  0  0  0  0  0  0  0  0  0
   -5.2025    5.4806  -15.9232 C   0  0  0  0  0  0  0  0  0  0  0  0
   -4.2889    5.8704  -16.9164 C   0  0  0  0  0  0  0  0  0  0  0  0
   -4.6278    5.7092  -18.2384 C   0  0  0  0  0  0  0  0  0  0  0  0
   -5.8009    5.2085  -18.6330 N   0  0  0  0  0  0  0  0  0  0  0  0
   -6.7069    4.8535  -17.6906 C   0  0  0  0  0  0  0  0  0  0  0  0
   -6.4704    4.9876  -16.3107 C   0  0  0  0  0  0  0  0  0  0  0  0
   -7.5482    4.6011  -15.3375 C   0  0  0  0  0  0  0  0  0  0  0  0
   -8.9387    4.4513  -15.9204 C   0  0  0  0  0  0  0  0  0  0  0  0
   -8.9451    3.7257  -17.2495 C   0  0  0  0  0  0  0  0  0  0  0  0
   -8.0175    4.3771  -18.2579 C   0  0  0  0  0  0  0  0  0  0  0  0
   -5.1959    5.0134  -13.4117 C   0  0  0  0  0  0  0  0  0  0  0  0
  1  2  1  0
  2  3  2  0
  3  4  1  0
  4  5  1  0
  5  6  2  0
  6  7  1  0
  7  8  2  0
  8  9  1  0
  9 10  2  0
 10 11  1  0
 11 12  1  0
 12 13  1  0
 13 14  1  0
  4 15  1  0
 15  1  2  0
 10  5  1  0
 14  9  1  0
M  END
>  <tags>  (165) 
openbind_xx01zvns2b_c1_knitwork_impure,fragmenstein_placed,openbind_xx01zvns2b_c1_scaffolds_chemok_bbok,BulkDock Fragalysis export,openbind_xx01zvns2b_c1_scaffolds

>  <placement_batch>  (165) 
openbind_xx01zvns2b_c1_knitwork_impure

>  <inspiration_score>  (165) 
None

>  <name>  (165) 
P60557

>  <HIPPO Pose ID>  (165) 
60557

>  <ref_pdb>  (165) 
Z1342a

>  <inchikey>  (165) 
HYJYIQWBFFXDJH-UHFFFAOYSA-N

>  <alias>  (165) 
None

>  <ref_mols>  (165) 
Z0673a,Z0852a,Z1342a

>  <subsites>  (165) 
1 - Z4590/B/203/1

>  <distance_score>  (165) 
0.896088

>  <HIPPO Compound ID>  (165) 
60596

>  <smiles>  (165) 
c1cnn(-c2ccnc3c2CCCC3)c1

>  <energy_score>  (165) 
-24.409543

$$$$
P60602
     RDKit          3D

 14 14  0  0  0  0  0  0  0  0999 V2000
   -3.9285    7.4975  -18.9601 C   0  0  0  0  0  0  0  0  0  0  0  0
   -2.9798    7.2188  -17.7733 C   0  0  0  0  0  0  0  0  0  0  0  0
   -1.8975    6.2232  -18.2321 C   0  0  0  0  0  0  0  0  0  0  0  0
   -2.2835    8.5489  -17.4072 C   0  0  0  0  0  0  0  0  0  0  0  0
   -3.7164    6.6747  -16.5046 C   0  0  1  0  0  0  0  0  0  0  0  0
   -4.6702    7.6534  -16.0519 O   0  0  0  0  0  0  0  0  0  0  0  0
   -4.4749    5.3512  -16.6812 C   0  0  0  0  0  0  0  0  0  0  0  0
   -5.5898    5.6376  -17.5217 O   0  0  0  0  0  0  0  0  0  0  0  0
   -6.7307    4.8090  -17.3179 C   0  0  0  0  0  0  0  0  0  0  0  0
   -7.6343    4.9953  -18.5330 C   0  0  0  0  0  0  0  0  0  0  0  0
   -9.0209    4.4005  -18.3324 C   0  0  0  0  0  0  0  0  0  0  0  0
   -9.6096    4.8942  -17.0940 N   0  0  0  0  0  0  0  0  0  0  0  0
   -8.8076    4.5502  -15.9324 C   0  0  0  0  0  0  0  0  0  0  0  0
   -7.4470    5.2077  -16.0302 C   0  0  0  0  0  0  0  0  0  0  0  0
  1  2  1  0
  2  3  1  0
  2  4  1  0
  2  5  1  0
  5  6  1  6
  5  7  1  0
  7  8  1  0
  8  9  1  0
  9 10  1  0
 10 11  1  0
 11 12  1  0
 12 13  1  0
 13 14  1  0
 14  9  1  0
M  END
>  <tags>  (166) 
openbind_xx01zvns2b_c1_knitwork_impure,BulkDock Fragalysis export,fragmenstein_placed,openbind_xx01zvns2b_c1_scaffolds

>  <placement_batch>  (166) 
openbind_xx01zvns2b_c1_knitwork_impure

>  <inspiration_score>  (166) 
None

>  <name>  (166) 
P60602

>  <HIPPO Pose ID>  (166) 
60602

>  <ref_pdb>  (166) 
Z0819a

>  <inchikey>  (166) 
NTSVAWSXRCGLIM-UHFFFAOYSA-N

>  <alias>  (166) 
None

>  <ref_mols>  (166) 
Z0884a,Z0819a

>  <subsites>  (166) 
1 - Z4590/B/203/1

>  <distance_score>  (166) 
0.916762

>  <HIPPO Compound ID>  (166) 
65212

>  <smiles>  (166) 
CC(C)(C)[C@@H](O)COC1CCNCC1

>  <energy_score>  (166) 
-37.25309

$$$$
P60620
     RDKit          3D

 15 16  0  0  0  0  0  0  0  0999 V2000
   -1.5819    4.2765  -19.0677 C   0  0  0  0  0  0  0  0  0  0  0  0
   -2.4258    5.0838  -20.0379 C   0  0  0  0  0  0  0  0  0  0  0  0
   -1.5283    5.7313  -21.0982 C   0  0  0  0  0  0  0  0  0  0  0  0
   -3.3373    6.1176  -19.3431 C   0  0  2  0  0  0  0  0  0  0  0  0
   -2.5530    7.2455  -18.6655 C   0  0  0  0  0  0  0  0  0  0  0  0
   -4.1891    5.4862  -18.3360 N   0  0  0  0  0  0  0  0  0  0  0  0
   -5.4089    4.9913  -18.6794 C   0  0  0  0  0  0  0  0  0  0  0  0
   -5.8416    4.6066  -19.8581 N   0  0  0  0  0  0  0  0  0  0  0  0
   -7.1392    4.1575  -19.7372 N   0  0  0  0  0  0  0  0  0  0  0  0
   -7.5068    4.3350  -18.4909 C   0  0  0  0  0  0  0  0  0  0  0  0
   -8.7201    4.0812  -17.7949 C   0  0  0  0  0  0  0  0  0  0  0  0
   -8.7561    4.2394  -16.4582 C   0  0  0  0  0  0  0  0  0  0  0  0
   -7.6013    4.7060  -15.7103 C   0  0  0  0  0  0  0  0  0  0  0  0
   -6.4679    4.9854  -16.3748 C   0  0  0  0  0  0  0  0  0  0  0  0
   -6.4254    4.7980  -17.7567 N   0  0  0  0  0  0  0  0  0  0  0  0
  1  2  1  0
  2  3  1  0
  2  4  1  0
  4  5  1  1
  4  6  1  0
  6  7  1  0
  7  8  2  0
  8  9  1  0
  9 10  2  0
 10 11  1  0
 11 12  2  0
 12 13  1  0
 13 14  2  0
 14 15  1  0
 15  7  1  0
 15 10  1  0
M  END
>  <tags>  (167) 
openbind_xx01zvns2b_c1_knitwork_impure,BulkDock Fragalysis export,fragmenstein_placed,openbind_xx01zvns2b_c1_scaffolds

>  <placement_batch>  (167) 
openbind_xx01zvns2b_c1_knitwork_impure

>  <inspiration_score>  (167) 
None

>  <name>  (167) 
P60620

>  <HIPPO Pose ID>  (167) 
60620

>  <ref_pdb>  (167) 
Z0951a

>  <inchikey>  (167) 
OWKFDRLCOMKSAF-UHFFFAOYSA-N

>  <alias>  (167) 
None

>  <ref_mols>  (167) 
Z0951a,Z0089a

>  <subsites>  (167) 
1 - Z4590/B/203/1

>  <distance_score>  (167) 
0.880465

>  <HIPPO Compound ID>  (167) 
108172

>  <smiles>  (167) 
CC(C)[C@H](C)Nc1nnc2ccccn12

>  <energy_score>  (167) 
-48.398804

$$$$
P60623
     RDKit          3D

 15 16  0  0  0  0  0  0  0  0999 V2000
   -1.2250    4.2172  -19.6686 C   0  0  0  0  0  0  0  0  0  0  0  0
   -2.3315    4.6233  -18.7316 C   0  0  0  0  0  0  0  0  0  0  0  0
   -3.2845    5.6680  -19.3216 C   0  0  0  0  0  0  0  0  0  0  0  0
   -2.6421    7.0652  -19.4206 C   0  0  0  0  0  0  0  0  0  0  0  0
   -2.0047    7.3378  -20.7771 C   0  0  0  0  0  0  0  0  0  0  0  0
   -4.4279    5.7615  -18.4229 N   0  0  0  0  0  0  0  0  0  0  0  0
   -5.5835    5.1081  -18.7141 C   0  0  0  0  0  0  0  0  0  0  0  0
   -5.9645    4.5561  -19.8447 N   0  0  0  0  0  0  0  0  0  0  0  0
   -7.2393    4.0534  -19.6940 N   0  0  0  0  0  0  0  0  0  0  0  0
   -7.6213    4.3088  -18.4648 C   0  0  0  0  0  0  0  0  0  0  0  0
   -8.8051    4.0085  -17.7388 C   0  0  0  0  0  0  0  0  0  0  0  0
   -8.8341    4.2315  -16.4115 C   0  0  0  0  0  0  0  0  0  0  0  0
   -7.7176    4.8381  -15.7086 C   0  0  0  0  0  0  0  0  0  0  0  0
   -6.6239    5.1807  -16.4078 C   0  0  0  0  0  0  0  0  0  0  0  0
   -6.5807    4.9114  -17.7757 N   0  0  0  0  0  0  0  0  0  0  0  0
  1  2  1  0
  2  3  1  0
  3  4  1  0
  4  5  1  0
  3  6  1  0
  6  7  1  0
  7  8  2  0
  8  9  1  0
  9 10  2  0
 10 11  1  0
 11 12  2  0
 12 13  1  0
 13 14  2  0
 14 15  1  0
 15  7  1  0
 15 10  1  0
M  END
>  <tags>  (168) 
openbind_xx01zvns2b_c1_knitwork_impure,fragmenstein_placed,openbind_xx01zvns2b_c1_scaffolds_chemok_bbok,BulkDock Fragalysis export,openbind_xx01zvns2b_c1_scaffolds

>  <placement_batch>  (168) 
openbind_xx01zvns2b_c1_knitwork_impure

>  <inspiration_score>  (168) 
None

>  <name>  (168) 
P60623

>  <HIPPO Pose ID>  (168) 
60623

>  <ref_pdb>  (168) 
Z0951a

>  <inchikey>  (168) 
CVYAXXNSGZKYHC-UHFFFAOYSA-N

>  <alias>  (168) 
None

>  <ref_mols>  (168) 
Z0951a,Z0089a

>  <subsites>  (168) 
1 - Z4590/B/203/1

>  <distance_score>  (168) 
0.822109

>  <HIPPO Compound ID>  (168) 
108179

>  <smiles>  (168) 
CCC(CC)Nc1nnc2ccccn12

>  <energy_score>  (168) 
-28.916664

$$$$
P60628
     RDKit          3D

 10 11  0  0  0  0  0  0  0  0999 V2000
   -9.3427    4.1597  -18.9984 N   0  0  0  0  0  0  0  0  0  0  0  0
   -8.3559    4.3787  -18.0727 C   0  0  0  0  0  0  0  0  0  0  0  0
   -7.0506    4.8123  -18.5582 C   0  0  0  0  0  0  0  0  0  0  0  0
   -6.0579    5.1605  -17.7210 C   0  0  0  0  0  0  0  0  0  0  0  0
   -6.2769    5.0887  -16.3234 C   0  0  0  0  0  0  0  0  0  0  0  0
   -5.5401    5.4155  -15.2849 N   0  0  0  0  0  0  0  0  0  0  0  0
   -6.2620    5.1103  -14.1500 N   0  0  0  0  0  0  0  0  0  0  0  0
   -7.4129    4.5966  -14.5297 C   0  0  0  0  0  0  0  0  0  0  0  0
   -7.4990    4.5994  -15.8925 N   0  0  0  0  0  0  0  0  0  0  0  0
   -8.5378    4.2590  -16.7463 C   0  0  0  0  0  0  0  0  0  0  0  0
  1  2  1  0
  2  3  1  0
  3  4  2  0
  4  5  1  0
  5  6  2  0
  6  7  1  0
  7  8  2  0
  8  9  1  0
  9 10  1  0
 10  2  2  0
  9  5  1  0
M  END
>  <tags>  (169) 
openbind_xx01zvns2b_c1_knitwork_impure,BulkDock Fragalysis export,fragmenstein_placed,openbind_xx01zvns2b_c1_scaffolds

>  <placement_batch>  (169) 
openbind_xx01zvns2b_c1_knitwork_impure

>  <inspiration_score>  (169) 
None

>  <name>  (169) 
P60628

>  <HIPPO Pose ID>  (169) 
60628

>  <ref_pdb>  (169) 
Z0951a

>  <inchikey>  (169) 
VEXTWFPILXXIPZ-UHFFFAOYSA-N

>  <alias>  (169) 
None

>  <ref_mols>  (169) 
Z0951a,Z0089a

>  <subsites>  (169) 
1 - Z4590/B/203/1

>  <distance_score>  (169) 
0.909668

>  <HIPPO Compound ID>  (169) 
108199

>  <smiles>  (169) 
Nc1ccc2nncn2c1

>  <energy_score>  (169) 
-18.181215

$$$$
P60758
     RDKit          3D

 10 11  0  0  0  0  0  0  0  0999 V2000
   -4.0858    5.0443  -20.3900 C   0  0  0  0  0  0  0  0  0  0  0  0
   -3.2871    5.4512  -19.3455 C   0  0  0  0  0  0  0  0  0  0  0  0
   -4.1994    5.4605  -17.8944 S   0  0  0  0  0  0  0  0  0  0  0  0
   -5.5720    4.8814  -18.7570 C   0  0  0  0  0  0  0  0  0  0  0  0
   -6.8117    4.5706  -18.1028 C   0  0  0  0  0  0  0  0  0  0  0  0
   -7.9750    4.0620  -18.6510 C   0  0  0  0  0  0  0  0  0  0  0  0
   -8.9260    3.8422  -17.6885 N   0  0  0  0  0  0  0  0  0  0  0  0
   -8.3247    4.2211  -16.5857 C   0  0  0  0  0  0  0  0  0  0  0  0
   -7.0611    4.7022  -16.7495 O   0  0  0  0  0  0  0  0  0  0  0  0
   -5.3820    4.7030  -20.0527 N   0  0  0  0  0  0  0  0  0  0  0  0
  1  2  2  0
  2  3  1  0
  3  4  1  0
  4  5  1  0
  5  6  2  0
  6  7  1  0
  7  8  2  0
  8  9  1  0
  4 10  2  0
 10  1  1  0
  9  5  1  0
M  END
>  <tags>  (170) 
openbind_xx01zvns2b_c1_knitwork_impure,BulkDock Fragalysis export,fragmenstein_placed,openbind_xx01zvns2b_c1_scaffolds

>  <placement_batch>  (170) 
openbind_xx01zvns2b_c1_knitwork_impure

>  <inspiration_score>  (170) 
None

>  <name>  (170) 
P60758

>  <HIPPO Pose ID>  (170) 
60758

>  <ref_pdb>  (170) 
Z1274a

>  <inchikey>  (170) 
ROAHUIFQLRHKEY-UHFFFAOYSA-N

>  <alias>  (170) 
None

>  <ref_mols>  (170) 
Z0788b,Z0788a,Z0227a,Z1274a

>  <subsites>  (170) 
1 - Z4590/B/203/1,6 - Z0788/B/302/1

>  <distance_score>  (170) 
0.819226

>  <HIPPO Compound ID>  (170) 
59171

>  <smiles>  (170) 
c1csc(-c2cnco2)n1

>  <energy_score>  (170) 
-64.884676

$$$$
P60759
     RDKit          3D

 10 11  0  0  0  0  0  0  0  0999 V2000
   -3.8342    5.0361  -20.4307 C   0  0  0  0  0  0  0  0  0  0  0  0
   -3.0220    5.4612  -19.4035 C   0  0  0  0  0  0  0  0  0  0  0  0
   -3.9260    5.5418  -17.9495 S   0  0  0  0  0  0  0  0  0  0  0  0
   -5.3079    4.9566  -18.7866 C   0  0  0  0  0  0  0  0  0  0  0  0
   -6.6772    4.6532  -18.0588 C   0  0  0  0  0  0  0  0  0  0  0  0
   -7.7407    4.1074  -18.7448 C   0  0  0  0  0  0  0  0  0  0  0  0
   -9.0518    3.8484  -17.6894 S   0  0  0  0  0  0  0  0  0  0  0  0
   -8.0987    4.4346  -16.3905 C   0  0  0  0  0  0  0  0  0  0  0  0
   -6.8987    4.8769  -16.7054 N   0  0  0  0  0  0  0  0  0  0  0  0
   -5.1357    4.7374  -20.0792 N   0  0  0  0  0  0  0  0  0  0  0  0
  1  2  2  0
  2  3  1  0
  3  4  1  0
  4  5  1  0
  5  6  2  0
  6  7  1  0
  7  8  1  0
  8  9  2  0
  4 10  2  0
 10  1  1  0
  9  5  1  0
M  END
>  <tags>  (171) 
openbind_xx01zvns2b_c1_knitwork_impure,fragmenstein_placed,openbind_xx01zvns2b_c1_scaffolds_chemok_bbok,BulkDock Fragalysis export,openbind_xx01zvns2b_c1_scaffolds

>  <placement_batch>  (171) 
openbind_xx01zvns2b_c1_knitwork_impure

>  <inspiration_score>  (171) 
None

>  <name>  (171) 
P60759

>  <HIPPO Pose ID>  (171) 
60759

>  <ref_pdb>  (171) 
Z1274a

>  <inchikey>  (171) 
MFSFSVIIXKYHLU-UHFFFAOYSA-N

>  <alias>  (171) 
None

>  <ref_mols>  (171) 
Z0788b,Z0788a,Z0227a,Z1274a

>  <subsites>  (171) 
1 - Z4590/B/203/1,6 - Z0788/B/302/1

>  <distance_score>  (171) 
0.915927

>  <HIPPO Compound ID>  (171) 
10929

>  <smiles>  (171) 
c1csc(-c2cscn2)n1

>  <energy_score>  (171) 
-88.482879

$$$$
P60760
     RDKit          3D

 10 11  0  0  0  0  0  0  0  0999 V2000
   -3.9497    5.0139  -20.5573 C   0  0  0  0  0  0  0  0  0  0  0  0
   -3.1089    5.4033  -19.5392 C   0  0  0  0  0  0  0  0  0  0  0  0
   -3.9748    5.4385  -18.0619 S   0  0  0  0  0  0  0  0  0  0  0  0
   -5.3826    4.8788  -18.8792 C   0  0  0  0  0  0  0  0  0  0  0  0
   -6.7350    4.5560  -18.1539 C   0  0  0  0  0  0  0  0  0  0  0  0
   -7.8952    4.0513  -18.8042 C   0  0  0  0  0  0  0  0  0  0  0  0
   -8.9642    3.8134  -18.0501 N   0  0  0  0  0  0  0  0  0  0  0  0
   -8.5795    4.1842  -16.4849 S   0  0  0  0  0  0  0  0  0  0  0  0
   -6.9733    4.6851  -16.8027 C   0  0  0  0  0  0  0  0  0  0  0  0
   -5.2419    4.7046  -20.1797 N   0  0  0  0  0  0  0  0  0  0  0  0
  1  2  2  0
  2  3  1  0
  3  4  1  0
  4  5  1  0
  5  6  1  0
  6  7  2  0
  7  8  1  0
  8  9  1  0
  4 10  2  0
 10  1  1  0
  9  5  2  0
M  END
>  <tags>  (172) 
openbind_xx01zvns2b_c1_knitwork_impure,fragmenstein_placed,openbind_xx01zvns2b_c1_scaffolds_chemok_bbok,BulkDock Fragalysis export,openbind_xx01zvns2b_c1_scaffolds

>  <placement_batch>  (172) 
openbind_xx01zvns2b_c1_knitwork_impure

>  <inspiration_score>  (172) 
None

>  <name>  (172) 
P60760

>  <HIPPO Pose ID>  (172) 
60760

>  <ref_pdb>  (172) 
Z1274a

>  <inchikey>  (172) 
VHWIUYXFNZHFHJ-UHFFFAOYSA-N

>  <alias>  (172) 
None

>  <ref_mols>  (172) 
Z0788b,Z0788a,Z0227a,Z1274a

>  <subsites>  (172) 
1 - Z4590/B/203/1,6 - Z0788/B/302/1

>  <distance_score>  (172) 
0.83732

>  <HIPPO Compound ID>  (172) 
59176

>  <smiles>  (172) 
c1csc(-c2cnsc2)n1

>  <energy_score>  (172) 
-52.62554

$$$$
P60761
     RDKit          3D

 10 11  0  0  0  0  0  0  0  0999 V2000
   -4.0461    5.0179  -20.4923 C   0  0  0  0  0  0  0  0  0  0  0  0
   -3.1933    5.4136  -19.4883 C   0  0  0  0  0  0  0  0  0  0  0  0
   -4.0388    5.4519  -18.0008 S   0  0  0  0  0  0  0  0  0  0  0  0
   -5.4676    4.8919  -18.7918 C   0  0  0  0  0  0  0  0  0  0  0  0
   -6.7048    4.6013  -18.1094 C   0  0  0  0  0  0  0  0  0  0  0  0
   -7.8528    4.0718  -18.6746 C   0  0  0  0  0  0  0  0  0  0  0  0
   -8.9154    3.8370  -17.8226 N   0  0  0  0  0  0  0  0  0  0  0  0
   -8.5682    4.1950  -16.6079 C   0  0  0  0  0  0  0  0  0  0  0  0
   -6.9918    4.8390  -16.4294 S   0  0  0  0  0  0  0  0  0  0  0  0
   -5.3315    4.7048  -20.0941 N   0  0  0  0  0  0  0  0  0  0  0  0
  1  2  2  0
  2  3  1  0
  3  4  1  0
  4  5  1  0
  5  6  2  0
  6  7  1  0
  7  8  2  0
  8  9  1  0
  4 10  2  0
 10  1  1  0
  9  5  1  0
M  END
>  <tags>  (173) 
openbind_xx01zvns2b_c1_knitwork_impure,BulkDock Fragalysis export,fragmenstein_placed,openbind_xx01zvns2b_c1_scaffolds

>  <placement_batch>  (173) 
openbind_xx01zvns2b_c1_knitwork_impure

>  <inspiration_score>  (173) 
None

>  <name>  (173) 
P60761

>  <HIPPO Pose ID>  (173) 
60761

>  <ref_pdb>  (173) 
Z1274a

>  <inchikey>  (173) 
HKGPXKKPGUKDKZ-UHFFFAOYSA-N

>  <alias>  (173) 
None

>  <ref_mols>  (173) 
Z0788b,Z0788a,Z0227a,Z1274a

>  <subsites>  (173) 
1 - Z4590/B/203/1,6 - Z0788/B/302/1

>  <distance_score>  (173) 
0.701014

>  <HIPPO Compound ID>  (173) 
11631

>  <smiles>  (173) 
c1csc(-c2cncs2)n1

>  <energy_score>  (173) 
-115.430333

$$$$
P60762
     RDKit          3D

 10 11  0  0  0  0  0  0  0  0999 V2000
   -4.0414    5.0184  -20.4354 C   0  0  0  0  0  0  0  0  0  0  0  0
   -3.2208    5.4478  -19.4168 C   0  0  0  0  0  0  0  0  0  0  0  0
   -4.1078    5.5110  -17.9519 S   0  0  0  0  0  0  0  0  0  0  0  0
   -5.4977    4.9188  -18.7749 C   0  0  0  0  0  0  0  0  0  0  0  0
   -6.8468    4.6191  -18.0328 C   0  0  0  0  0  0  0  0  0  0  0  0
   -7.9600    4.0917  -18.6391 C   0  0  0  0  0  0  0  0  0  0  0  0
   -8.9135    3.9012  -17.6870 O   0  0  0  0  0  0  0  0  0  0  0  0
   -8.3150    4.3344  -16.5416 C   0  0  0  0  0  0  0  0  0  0  0  0
   -7.0972    4.8119  -16.6903 N   0  0  0  0  0  0  0  0  0  0  0  0
   -5.3349    4.6996  -20.0684 N   0  0  0  0  0  0  0  0  0  0  0  0
  1  2  2  0
  2  3  1  0
  3  4  1  0
  4  5  1  0
  5  6  2  0
  6  7  1  0
  7  8  1  0
  8  9  2  0
  4 10  2  0
 10  1  1  0
  9  5  1  0
M  END
>  <tags>  (174) 
openbind_xx01zvns2b_c1_knitwork_impure,fragmenstein_placed,openbind_xx01zvns2b_c1_scaffolds_chemok_bbok,BulkDock Fragalysis export,openbind_xx01zvns2b_c1_scaffolds

>  <placement_batch>  (174) 
openbind_xx01zvns2b_c1_knitwork_impure

>  <inspiration_score>  (174) 
None

>  <name>  (174) 
P60762

>  <HIPPO Pose ID>  (174) 
60762

>  <ref_pdb>  (174) 
Z1274a

>  <inchikey>  (174) 
OSENQCIRVHFZSD-UHFFFAOYSA-N

>  <alias>  (174) 
None

>  <ref_mols>  (174) 
Z0788b,Z0788a,Z0227a,Z1274a

>  <subsites>  (174) 
1 - Z4590/B/203/1,6 - Z0788/B/302/1

>  <distance_score>  (174) 
0.77644

>  <HIPPO Compound ID>  (174) 
50889

>  <smiles>  (174) 
c1csc(-c2cocn2)n1

>  <energy_score>  (174) 
-58.699647

$$$$
P60805
     RDKit          3D

 23 25  0  0  0  0  0  0  0  0999 V2000
   -4.5534    6.0457  -15.5687 C   0  0  0  0  0  0  0  0  0  0  0  0
   -4.4898    5.5432  -16.9011 O   0  0  0  0  0  0  0  0  0  0  0  0
   -5.5896    5.9402  -17.7344 C   0  0  0  0  0  0  0  0  0  0  0  0
   -6.9000    5.2769  -17.4010 C   0  0  0  0  0  0  0  0  0  0  0  0
   -7.6910    4.7045  -18.3716 C   0  0  0  0  0  0  0  0  0  0  0  0
   -8.8651    4.1391  -17.9339 C   0  0  0  0  0  0  0  0  0  0  0  0
   -9.2280    4.0778  -16.6373 N   0  0  0  0  0  0  0  0  0  0  0  0
   -8.3948    4.6650  -15.7609 C   0  0  0  0  0  0  0  0  0  0  0  0
   -8.5986    4.4672  -14.2856 C   0  0  0  0  0  0  0  0  0  0  0  0
   -8.1451    5.6488  -13.4415 C   0  0  0  0  0  0  0  0  0  0  0  0
   -8.1857    5.3865  -12.0199 N   0  0  0  0  0  0  0  0  0  0  0  0
   -7.3736    6.0039  -10.8644 C   0  0  0  0  0  0  0  0  0  0  0  0
   -6.4906    6.7651  -10.8838 O   0  0  0  0  0  0  0  0  0  0  0  0
   -7.8731    5.4967   -9.5703 C   0  0  0  0  0  0  0  0  0  0  0  0
   -8.1060    6.3588   -8.5568 N   0  0  0  0  0  0  0  0  0  0  0  0
   -8.5003    5.5922   -7.4707 O   0  0  0  0  0  0  0  0  0  0  0  0
   -8.5135    4.3018   -7.8455 C   0  0  0  0  0  0  0  0  0  0  0  0
   -8.1525    4.1652   -9.1608 C   0  0  0  0  0  0  0  0  0  0  0  0
   -8.0704    2.8370   -9.8142 C   0  0  0  0  0  0  0  0  0  0  0  0
   -7.9357    1.8038   -8.7698 N   0  0  0  0  0  0  0  0  0  0  0  0
   -8.9592    1.9147   -7.7106 C   0  0  0  0  0  0  0  0  0  0  0  0
   -8.8243    3.2199   -6.8934 C   0  0  0  0  0  0  0  0  0  0  0  0
   -7.2794    5.3152  -16.1108 N   0  0  0  0  0  0  0  0  0  0  0  0
  1  2  1  0
  2  3  1  0
  3  4  1  0
  4  5  2  0
  5  6  1  0
  6  7  2  0
  7  8  1  0
  8  9  1  0
  9 10  1  0
 10 11  1  0
 11 12  1  0
 12 13  2  0
 12 14  1  0
 14 15  2  0
 15 16  1  0
 16 17  1  0
 17 18  2  0
 18 19  1  0
 19 20  1  0
 20 21  1  0
 21 22  1  0
  8 23  2  0
 23  4  1  0
 18 14  1  0
 22 17  1  0
M  END
>  <tags>  (175) 
openbind_xx01zvns2b_c1_knitwork_impure,BulkDock Fragalysis export,fragmenstein_placed,openbind_xx01zvns2b_c1_scaffolds

>  <placement_batch>  (175) 
openbind_xx01zvns2b_c1_knitwork_impure

>  <inspiration_score>  (175) 
None

>  <name>  (175) 
P60805

>  <HIPPO Pose ID>  (175) 
60805

>  <ref_pdb>  (175) 
Z0875a

>  <inchikey>  (175) 
JOMHNNDBFYIKQR-UHFFFAOYSA-N

>  <alias>  (175) 
None

>  <ref_mols>  (175) 
Z0969a,Z0875a

>  <subsites>  (175) 
1 - Z4590/B/203/1

>  <distance_score>  (175) 
0.882472

>  <HIPPO Compound ID>  (175) 
66470

>  <smiles>  (175) 
COCc1ccnc(CCNC(=O)c2noc3c2CNCC3)n1

>  <energy_score>  (175) 
-8.373237

$$$$
P60858
     RDKit          3D

 14 15  0  0  0  0  0  0  0  0999 V2000
   -1.9389    4.5291  -18.9999 C   0  0  0  0  0  0  0  0  0  0  0  0
   -2.7545    5.5638  -19.2372 C   0  0  0  0  0  0  0  0  0  0  0  0
   -2.1255    7.3200  -19.1399 Br  0  0  0  0  0  0  0  0  0  0  0  0
   -4.2126    5.4195  -19.5744 C   0  0  0  0  0  0  0  0  0  0  0  0
   -4.9597    5.5663  -18.3480 N   0  0  0  0  0  0  0  0  0  0  0  0
   -6.1903    4.9881  -18.1265 C   0  0  0  0  0  0  0  0  0  0  0  0
   -7.0167    4.5077  -19.1402 C   0  0  0  0  0  0  0  0  0  0  0  0
   -8.2599    3.9820  -18.8364 C   0  0  0  0  0  0  0  0  0  0  0  0
   -8.7712    3.8706  -17.5998 N   0  0  0  0  0  0  0  0  0  0  0  0
   -7.9845    4.3540  -16.6043 C   0  0  0  0  0  0  0  0  0  0  0  0
   -8.3510    4.3946  -15.2336 C   0  0  0  0  0  0  0  0  0  0  0  0
   -7.3652    4.9150  -14.4299 C   0  0  0  0  0  0  0  0  0  0  0  0
   -6.0009    5.3961  -15.3332 S   0  0  0  0  0  0  0  0  0  0  0  0
   -6.7212    4.8965  -16.8245 C   0  0  0  0  0  0  0  0  0  0  0  0
  1  2  2  0
  2  3  1  0
  2  4  1  0
  4  5  1  0
  5  6  1  0
  6  7  2  0
  7  8  1  0
  8  9  2  0
  9 10  1  0
 10 11  1  0
 11 12  2  0
 12 13  1  0
 13 14  1  0
 14  6  1  0
 14 10  2  0
M  END
>  <tags>  (176) 
openbind_xx01zvns2b_c1_knitwork_impure,fragmenstein_placed,openbind_xx01zvns2b_c1_scaffolds_chemok_bbok,BulkDock Fragalysis export,openbind_xx01zvns2b_c1_scaffolds

>  <placement_batch>  (176) 
openbind_xx01zvns2b_c1_knitwork_impure

>  <inspiration_score>  (176) 
None

>  <name>  (176) 
P60858

>  <HIPPO Pose ID>  (176) 
60858

>  <ref_pdb>  (176) 
Z3515a

>  <inchikey>  (176) 
HONZPOPPNAQRJH-UHFFFAOYSA-N

>  <alias>  (176) 
None

>  <ref_mols>  (176) 
Z0089a,Z3515a

>  <subsites>  (176) 
1 - Z4590/B/203/1

>  <distance_score>  (176) 
0.806355

>  <HIPPO Compound ID>  (176) 
108373

>  <smiles>  (176) 
C=C(Br)CNc1ccnc2ccsc12

>  <energy_score>  (176) 
-30.120937

$$$$
P60860
     RDKit          3D

 15 16  0  0  0  0  0  0  0  0999 V2000
   -1.9829    3.7676  -18.9082 C   0  0  0  0  0  0  0  0  0  0  0  0
   -1.3244    5.3484  -18.3640 S   0  0  0  0  0  0  0  0  0  0  0  0
   -1.9059    6.3175  -19.7630 C   0  0  0  0  0  0  0  0  0  0  0  0
   -3.3187    6.8624  -19.5867 C   0  0  0  0  0  0  0  0  0  0  0  0
   -4.4663    5.8643  -19.7371 C   0  0  0  0  0  0  0  0  0  0  0  0
   -4.8217    5.2876  -18.4572 N   0  0  0  0  0  0  0  0  0  0  0  0
   -6.1140    4.8542  -18.1940 C   0  0  0  0  0  0  0  0  0  0  0  0
   -6.9792    4.3798  -19.1782 C   0  0  0  0  0  0  0  0  0  0  0  0
   -8.2514    3.9539  -18.8403 C   0  0  0  0  0  0  0  0  0  0  0  0
   -8.7536    3.9206  -17.5948 N   0  0  0  0  0  0  0  0  0  0  0  0
   -7.9168    4.3687  -16.6231 C   0  0  0  0  0  0  0  0  0  0  0  0
   -8.2430    4.4335  -15.2397 C   0  0  0  0  0  0  0  0  0  0  0  0
   -7.2141    4.9212  -14.4703 C   0  0  0  0  0  0  0  0  0  0  0  0
   -5.8573    5.3395  -15.4162 S   0  0  0  0  0  0  0  0  0  0  0  0
   -6.6272    4.8326  -16.8795 C   0  0  0  0  0  0  0  0  0  0  0  0
  1  2  1  0
  2  3  1  0
  3  4  1  0
  4  5  1  0
  5  6  1  0
  6  7  1  0
  7  8  2  0
  8  9  1  0
  9 10  2  0
 10 11  1  0
 11 12  1  0
 12 13  2  0
 13 14  1  0
 14 15  1  0
 15  7  1  0
 15 11  2  0
M  END
>  <tags>  (177) 
openbind_xx01zvns2b_c1_knitwork_impure,BulkDock Fragalysis export,fragmenstein_placed,openbind_xx01zvns2b_c1_scaffolds

>  <placement_batch>  (177) 
openbind_xx01zvns2b_c1_knitwork_impure

>  <inspiration_score>  (177) 
None

>  <name>  (177) 
P60860

>  <HIPPO Pose ID>  (177) 
60860

>  <ref_pdb>  (177) 
Z3515a

>  <inchikey>  (177) 
HHFHKSALHQUDAX-UHFFFAOYSA-N

>  <alias>  (177) 
None

>  <ref_mols>  (177) 
Z0089a,Z3515a

>  <subsites>  (177) 
1 - Z4590/B/203/1

>  <distance_score>  (177) 
0.989747

>  <HIPPO Compound ID>  (177) 
108375

>  <smiles>  (177) 
CSCCCNc1ccnc2ccsc12

>  <energy_score>  (177) 
-24.056407

$$$$
P60861
     RDKit          3D

 14 15  0  0  0  0  0  0  0  0999 V2000
   -2.1532    6.9331  -19.3891 C   0  0  0  0  0  0  0  0  0  0  0  0
   -2.7470    5.7317  -19.2991 C   0  0  0  0  0  0  0  0  0  0  0  0
   -1.9750    4.4989  -18.9297 C   0  0  0  0  0  0  0  0  0  0  0  0
   -4.2169    5.5352  -19.5595 C   0  0  0  0  0  0  0  0  0  0  0  0
   -4.8268    5.2777  -18.2842 N   0  0  0  0  0  0  0  0  0  0  0  0
   -6.1275    4.8680  -18.1050 C   0  0  0  0  0  0  0  0  0  0  0  0
   -6.9567    4.4242  -19.1337 C   0  0  0  0  0  0  0  0  0  0  0  0
   -8.2436    3.9970  -18.8571 C   0  0  0  0  0  0  0  0  0  0  0  0
   -8.7951    3.9416  -17.6339 N   0  0  0  0  0  0  0  0  0  0  0  0
   -8.0008    4.3789  -16.6234 C   0  0  0  0  0  0  0  0  0  0  0  0
   -8.3892    4.4324  -15.2590 C   0  0  0  0  0  0  0  0  0  0  0  0
   -7.3954    4.9068  -14.4370 C   0  0  0  0  0  0  0  0  0  0  0  0
   -5.9928    5.3215  -15.3142 S   0  0  0  0  0  0  0  0  0  0  0  0
   -6.7014    4.8397  -16.8177 C   0  0  0  0  0  0  0  0  0  0  0  0
  1  2  2  0
  2  3  1  0
  2  4  1  0
  4  5  1  0
  5  6  1  0
  6  7  2  0
  7  8  1  0
  8  9  2  0
  9 10  1  0
 10 11  1  0
 11 12  2  0
 12 13  1  0
 13 14  1  0
 14  6  1  0
 14 10  2  0
M  END
>  <tags>  (178) 
openbind_xx01zvns2b_c1_knitwork_impure,fragmenstein_placed,openbind_xx01zvns2b_c1_scaffolds_chemok_bbok,BulkDock Fragalysis export,openbind_xx01zvns2b_c1_scaffolds

>  <placement_batch>  (178) 
openbind_xx01zvns2b_c1_knitwork_impure

>  <inspiration_score>  (178) 
None

>  <name>  (178) 
P60861

>  <HIPPO Pose ID>  (178) 
60861

>  <ref_pdb>  (178) 
Z3515a

>  <inchikey>  (178) 
YMPHBNYIIWKMOI-UHFFFAOYSA-N

>  <alias>  (178) 
None

>  <ref_mols>  (178) 
Z0089a,Z3515a

>  <subsites>  (178) 
1 - Z4590/B/203/1

>  <distance_score>  (178) 
0.78842

>  <HIPPO Compound ID>  (178) 
108376

>  <smiles>  (178) 
C=C(C)CNc1ccnc2ccsc12

>  <energy_score>  (178) 
-26.803267

$$$$
P60862
     RDKit          3D

 15 16  0  0  0  0  0  0  0  0999 V2000
   -1.6227    6.3161  -22.0152 C   0  0  0  0  0  0  0  0  0  0  0  0
   -2.7593    7.0578  -21.3378 C   0  0  0  0  0  0  0  0  0  0  0  0
   -2.4138    7.3996  -19.5841 S   0  0  0  0  0  0  0  0  0  0  0  0
   -2.4910    5.7201  -18.8606 C   0  0  0  0  0  0  0  0  0  0  0  0
   -3.8444    5.0197  -18.9896 C   0  0  0  0  0  0  0  0  0  0  0  0
   -4.9194    5.8385  -18.4360 N   0  0  0  0  0  0  0  0  0  0  0  0
   -6.1069    5.1355  -18.1800 C   0  0  0  0  0  0  0  0  0  0  0  0
   -6.8773    4.5947  -19.2079 C   0  0  0  0  0  0  0  0  0  0  0  0
   -8.0869    3.9898  -18.9178 C   0  0  0  0  0  0  0  0  0  0  0  0
   -8.6053    3.8475  -17.6871 N   0  0  0  0  0  0  0  0  0  0  0  0
   -7.8571    4.3672  -16.6785 C   0  0  0  0  0  0  0  0  0  0  0  0
   -8.2444    4.3740  -15.3123 C   0  0  0  0  0  0  0  0  0  0  0  0
   -7.2965    4.9393  -14.4932 C   0  0  0  0  0  0  0  0  0  0  0  0
   -5.9515    5.5072  -15.3770 S   0  0  0  0  0  0  0  0  0  0  0  0
   -6.6258    4.9901  -16.8801 C   0  0  0  0  0  0  0  0  0  0  0  0
  1  2  1  0
  2  3  1  0
  3  4  1  0
  4  5  1  0
  5  6  1  0
  6  7  1  0
  7  8  2  0
  8  9  1  0
  9 10  2  0
 10 11  1  0
 11 12  1  0
 12 13  2  0
 13 14  1  0
 14 15  1  0
 15  7  1  0
 15 11  2  0
M  END
>  <tags>  (179) 
openbind_xx01zvns2b_c1_knitwork_impure,BulkDock Fragalysis export,fragmenstein_placed,openbind_xx01zvns2b_c1_scaffolds

>  <placement_batch>  (179) 
openbind_xx01zvns2b_c1_knitwork_impure

>  <inspiration_score>  (179) 
None

>  <name>  (179) 
P60862

>  <HIPPO Pose ID>  (179) 
60862

>  <ref_pdb>  (179) 
Z3515a

>  <inchikey>  (179) 
MBIUNXQUYWMWIJ-UHFFFAOYSA-N

>  <alias>  (179) 
None

>  <ref_mols>  (179) 
Z0089a,Z3515a

>  <subsites>  (179) 
1 - Z4590/B/203/1

>  <distance_score>  (179) 
0.841425

>  <HIPPO Compound ID>  (179) 
108377

>  <smiles>  (179) 
CCSCCNc1ccnc2ccsc12

>  <energy_score>  (179) 
-25.165566

$$$$
P60863
     RDKit          3D

 15 16  0  0  0  0  0  0  0  0999 V2000
    0.1014    8.2098  -18.2248 Cl  0  0  0  0  0  0  0  0  0  0  0  0
   -0.5308    6.6352  -18.7623 C   0  0  0  0  0  0  0  0  0  0  0  0
   -2.0461    6.6993  -18.9147 C   0  0  0  0  0  0  0  0  0  0  0  0
   -2.6019    5.3462  -19.3602 C   0  0  0  0  0  0  0  0  0  0  0  0
   -4.1114    5.3718  -19.5945 C   0  0  0  0  0  0  0  0  0  0  0  0
   -4.8196    5.4752  -18.3406 N   0  0  0  0  0  0  0  0  0  0  0  0
   -6.0897    4.9737  -18.1290 C   0  0  0  0  0  0  0  0  0  0  0  0
   -6.9445    4.5573  -19.1475 C   0  0  0  0  0  0  0  0  0  0  0  0
   -8.2080    4.0762  -18.8488 C   0  0  0  0  0  0  0  0  0  0  0  0
   -8.7189    3.9561  -17.6126 N   0  0  0  0  0  0  0  0  0  0  0  0
   -7.9088    4.3853  -16.6103 C   0  0  0  0  0  0  0  0  0  0  0  0
   -8.2621    4.3998  -15.2326 C   0  0  0  0  0  0  0  0  0  0  0  0
   -7.2560    4.8742  -14.4260 C   0  0  0  0  0  0  0  0  0  0  0  0
   -5.8870    5.3413  -15.3293 S   0  0  0  0  0  0  0  0  0  0  0  0
   -6.6256    4.8853  -16.8261 C   0  0  0  0  0  0  0  0  0  0  0  0
  1  2  1  0
  2  3  1  0
  3  4  1  0
  4  5  1  0
  5  6  1  0
  6  7  1  0
  7  8  2  0
  8  9  1  0
  9 10  2  0
 10 11  1  0
 11 12  1  0
 12 13  2  0
 13 14  1  0
 14 15  1  0
 15  7  1  0
 15 11  2  0
M  END
>  <tags>  (180) 
openbind_xx01zvns2b_c1_knitwork_impure,BulkDock Fragalysis export,fragmenstein_placed,openbind_xx01zvns2b_c1_scaffolds

>  <placement_batch>  (180) 
openbind_xx01zvns2b_c1_knitwork_impure

>  <inspiration_score>  (180) 
None

>  <name>  (180) 
P60863

>  <HIPPO Pose ID>  (180) 
60863

>  <ref_pdb>  (180) 
Z3515a

>  <inchikey>  (180) 
SNCAGJUHUDMPFE-UHFFFAOYSA-N

>  <alias>  (180) 
None

>  <ref_mols>  (180) 
Z0089a,Z3515a

>  <subsites>  (180) 
1 - Z4590/B/203/1

>  <distance_score>  (180) 
0.552513

>  <HIPPO Compound ID>  (180) 
108378

>  <smiles>  (180) 
ClCCCCNc1ccnc2ccsc12

>  <energy_score>  (180) 
-23.519234

$$$$
P60864
     RDKit          3D

 15 16  0  0  0  0  0  0  0  0999 V2000
   -2.6475    6.9705  -19.5304 C   0  0  0  0  0  0  0  0  0  0  0  0
   -2.8443    5.7019  -18.6917 C   0  0  0  0  0  0  0  0  0  0  0  0
   -1.7735    4.6802  -19.0820 C   0  0  0  0  0  0  0  0  0  0  0  0
   -2.6768    6.0463  -17.2030 C   0  0  0  0  0  0  0  0  0  0  0  0
   -4.2063    5.0427  -18.9662 C   0  0  0  0  0  0  0  0  0  0  0  0
   -5.3226    5.9269  -18.6540 N   0  0  0  0  0  0  0  0  0  0  0  0
   -6.4434    5.1794  -18.2199 C   0  0  0  0  0  0  0  0  0  0  0  0
   -7.2240    4.4732  -19.1336 C   0  0  0  0  0  0  0  0  0  0  0  0
   -8.3479    3.8025  -18.6962 C   0  0  0  0  0  0  0  0  0  0  0  0
   -8.7555    3.7234  -17.4185 N   0  0  0  0  0  0  0  0  0  0  0  0
   -7.9597    4.3545  -16.5139 C   0  0  0  0  0  0  0  0  0  0  0  0
   -8.1997    4.3989  -15.1124 C   0  0  0  0  0  0  0  0  0  0  0  0
   -7.2203    5.0689  -14.4209 C   0  0  0  0  0  0  0  0  0  0  0  0
   -6.0289    5.6960  -15.4644 S   0  0  0  0  0  0  0  0  0  0  0  0
   -6.8105    5.0628  -16.8665 C   0  0  0  0  0  0  0  0  0  0  0  0
  1  2  1  0
  2  3  1  0
  2  4  1  0
  2  5  1  0
  5  6  1  0
  6  7  1  0
  7  8  2  0
  8  9  1  0
  9 10  2  0
 10 11  1  0
 11 12  1  0
 12 13  2  0
 13 14  1  0
 14 15  1  0
 15  7  1  0
 15 11  2  0
M  END
>  <tags>  (181) 
openbind_xx01zvns2b_c1_knitwork_impure,fragmenstein_placed,openbind_xx01zvns2b_c1_scaffolds_chemok_bbok,BulkDock Fragalysis export,openbind_xx01zvns2b_c1_scaffolds

>  <placement_batch>  (181) 
openbind_xx01zvns2b_c1_knitwork_impure

>  <inspiration_score>  (181) 
None

>  <name>  (181) 
P60864

>  <HIPPO Pose ID>  (181) 
60864

>  <ref_pdb>  (181) 
Z3515a

>  <inchikey>  (181) 
KVVPNFQDRHKSIT-UHFFFAOYSA-N

>  <alias>  (181) 
None

>  <ref_mols>  (181) 
Z0089a,Z3515a

>  <subsites>  (181) 
1 - Z4590/B/203/1

>  <distance_score>  (181) 
0.656819

>  <HIPPO Compound ID>  (181) 
108379

>  <smiles>  (181) 
CC(C)(C)CNc1ccnc2ccsc12

>  <energy_score>  (181) 
-28.516185

$$$$
P60865
     RDKit          3D

 15 16  0  0  0  0  0  0  0  0999 V2000
   -3.1587    4.6267  -20.0236 C   0  0  0  0  0  0  0  0  0  0  0  0
   -3.6364    5.8334  -19.2359 C   0  0  0  0  0  0  0  0  0  0  0  0
   -4.3136    6.8648  -20.1491 C   0  0  0  0  0  0  0  0  0  0  0  0
   -2.3173    6.3994  -18.6483 C   0  0  0  0  0  0  0  0  0  0  0  0
   -2.5428    7.9099  -17.7531 Cl  0  0  0  0  0  0  0  0  0  0  0  0
   -4.5114    5.4244  -18.1306 N   0  0  0  0  0  0  0  0  0  0  0  0
   -5.8139    4.9840  -18.0892 C   0  0  0  0  0  0  0  0  0  0  0  0
   -6.5728    4.5667  -19.1779 C   0  0  0  0  0  0  0  0  0  0  0  0
   -7.8733    4.1120  -19.0034 C   0  0  0  0  0  0  0  0  0  0  0  0
   -8.5106    4.0076  -17.8264 N   0  0  0  0  0  0  0  0  0  0  0  0
   -7.7923    4.4161  -16.7509 C   0  0  0  0  0  0  0  0  0  0  0  0
   -8.2732    4.4122  -15.4120 C   0  0  0  0  0  0  0  0  0  0  0  0
   -7.3429    4.8680  -14.5098 C   0  0  0  0  0  0  0  0  0  0  0  0
   -5.8925    5.3352  -15.2763 S   0  0  0  0  0  0  0  0  0  0  0  0
   -6.4875    4.8976  -16.8443 C   0  0  0  0  0  0  0  0  0  0  0  0
  1  2  1  0
  2  3  1  0
  2  4  1  0
  4  5  1  0
  2  6  1  0
  6  7  1  0
  7  8  2  0
  8  9  1  0
  9 10  2  0
 10 11  1  0
 11 12  1  0
 12 13  2  0
 13 14  1  0
 14 15  1  0
 15  7  1  0
 15 11  2  0
M  END
>  <tags>  (182) 
openbind_xx01zvns2b_c1_knitwork_impure,fragmenstein_placed,openbind_xx01zvns2b_c1_scaffolds_chemok_bbok,BulkDock Fragalysis export,openbind_xx01zvns2b_c1_scaffolds

>  <placement_batch>  (182) 
openbind_xx01zvns2b_c1_knitwork_impure

>  <inspiration_score>  (182) 
None

>  <name>  (182) 
P60865

>  <HIPPO Pose ID>  (182) 
60865

>  <ref_pdb>  (182) 
Z3515a

>  <inchikey>  (182) 
FQPYZRHCGIEGGC-UHFFFAOYSA-N

>  <alias>  (182) 
None

>  <ref_mols>  (182) 
Z0089a,Z3515a

>  <subsites>  (182) 
1 - Z4590/B/203/1

>  <distance_score>  (182) 
0.975945

>  <HIPPO Compound ID>  (182) 
108381

>  <smiles>  (182) 
CC(C)(CCl)Nc1ccnc2ccsc12

>  <energy_score>  (182) 
-30.472984

$$$$
P60866
     RDKit          3D

 15 16  0  0  0  0  0  0  0  0999 V2000
   -2.0152    3.8043  -19.1453 C   0  0  0  0  0  0  0  0  0  0  0  0
   -1.8230    5.2514  -18.7902 C   0  0  0  0  0  0  0  0  0  0  0  0
   -2.7810    6.1620  -19.5582 C   0  0  2  0  0  0  0  0  0  0  0  0
   -2.6589    7.8053  -18.8637 Cl  0  0  0  0  0  0  0  0  0  0  0  0
   -4.2542    5.7143  -19.6243 C   0  0  0  0  0  0  0  0  0  0  0  0
   -4.7984    5.4159  -18.3153 N   0  0  0  0  0  0  0  0  0  0  0  0
   -6.0838    4.9491  -18.1129 C   0  0  0  0  0  0  0  0  0  0  0  0
   -6.9085    4.4627  -19.1266 C   0  0  0  0  0  0  0  0  0  0  0  0
   -8.1793    3.9986  -18.8316 C   0  0  0  0  0  0  0  0  0  0  0  0
   -8.7164    3.9368  -17.6023 N   0  0  0  0  0  0  0  0  0  0  0  0
   -7.9205    4.3964  -16.6023 C   0  0  0  0  0  0  0  0  0  0  0  0
   -8.2873    4.4366  -15.2286 C   0  0  0  0  0  0  0  0  0  0  0  0
   -7.2927    4.9355  -14.4227 C   0  0  0  0  0  0  0  0  0  0  0  0
   -5.9191    5.3957  -15.3227 S   0  0  0  0  0  0  0  0  0  0  0  0
   -6.6378    4.8984  -16.8157 C   0  0  0  0  0  0  0  0  0  0  0  0
  1  2  1  0
  2  3  1  0
  3  4  1  1
  3  5  1  0
  5  6  1  0
  6  7  1  0
  7  8  2  0
  8  9  1  0
  9 10  2  0
 10 11  1  0
 11 12  1  0
 12 13  2  0
 13 14  1  0
 14 15  1  0
 15  7  1  0
 15 11  2  0
M  END
>  <tags>  (183) 
openbind_xx01zvns2b_c1_knitwork_impure,fragmenstein_placed,openbind_xx01zvns2b_c1_scaffolds_chemok_bbok,BulkDock Fragalysis export,openbind_xx01zvns2b_c1_scaffolds

>  <placement_batch>  (183) 
openbind_xx01zvns2b_c1_knitwork_impure

>  <inspiration_score>  (183) 
None

>  <name>  (183) 
P60866

>  <HIPPO Pose ID>  (183) 
60866

>  <ref_pdb>  (183) 
Z3515a

>  <inchikey>  (183) 
WIOXXXMSCMUZFJ-UHFFFAOYSA-N

>  <alias>  (183) 
None

>  <ref_mols>  (183) 
Z0089a,Z3515a

>  <subsites>  (183) 
1 - Z4590/B/203/1

>  <distance_score>  (183) 
0.696188

>  <HIPPO Compound ID>  (183) 
108382

>  <smiles>  (183) 
CC[C@H](Cl)CNc1ccnc2ccsc12

>  <energy_score>  (183) 
-32.69762

$$$$
P60867
     RDKit          3D

 15 16  0  0  0  0  0  0  0  0999 V2000
   -2.5071    7.5861  -17.9382 C   0  0  0  0  0  0  0  0  0  0  0  0
   -2.4180    6.3335  -18.7968 C   0  0  0  0  0  0  0  0  0  0  0  0
   -1.5356    5.2834  -18.1120 C   0  0  0  0  0  0  0  0  0  0  0  0
   -3.8244    5.8267  -19.1896 C   0  0  1  0  0  0  0  0  0  0  0  0
   -3.6135    4.8516  -20.3168 C   0  0  0  0  0  0  0  0  0  0  0  0
   -4.5072    5.2044  -18.0647 N   0  0  0  0  0  0  0  0  0  0  0  0
   -5.8686    4.9545  -17.9722 C   0  0  0  0  0  0  0  0  0  0  0  0
   -6.7227    4.7197  -19.0500 C   0  0  0  0  0  0  0  0  0  0  0  0
   -8.0394    4.3362  -18.8385 C   0  0  0  0  0  0  0  0  0  0  0  0
   -8.6191    4.1830  -17.6377 N   0  0  0  0  0  0  0  0  0  0  0  0
   -7.8241    4.4732  -16.5774 C   0  0  0  0  0  0  0  0  0  0  0  0
   -8.2448    4.4311  -15.2196 C   0  0  0  0  0  0  0  0  0  0  0  0
   -7.2467    4.7756  -14.3406 C   0  0  0  0  0  0  0  0  0  0  0  0
   -5.7989    5.1749  -15.1493 S   0  0  0  0  0  0  0  0  0  0  0  0
   -6.4900    4.8566  -16.7050 C   0  0  0  0  0  0  0  0  0  0  0  0
  1  2  1  0
  2  3  1  0
  2  4  1  0
  4  5  1  6
  4  6  1  0
  6  7  1  0
  7  8  2  0
  8  9  1  0
  9 10  2  0
 10 11  1  0
 11 12  1  0
 12 13  2  0
 13 14  1  0
 14 15  1  0
 15  7  1  0
 15 11  2  0
M  END
>  <tags>  (184) 
openbind_xx01zvns2b_c1_knitwork_impure,fragmenstein_placed,openbind_xx01zvns2b_c1_scaffolds_chemok_bbok,BulkDock Fragalysis export,openbind_xx01zvns2b_c1_scaffolds

>  <placement_batch>  (184) 
openbind_xx01zvns2b_c1_knitwork_impure

>  <inspiration_score>  (184) 
None

>  <name>  (184) 
P60867

>  <HIPPO Pose ID>  (184) 
60867

>  <ref_pdb>  (184) 
Z3515a

>  <inchikey>  (184) 
DPYOJOSEVBEMBW-UHFFFAOYSA-N

>  <alias>  (184) 
None

>  <ref_mols>  (184) 
Z0089a,Z3515a

>  <subsites>  (184) 
1 - Z4590/B/203/1

>  <distance_score>  (184) 
0.83344

>  <HIPPO Compound ID>  (184) 
108383

>  <smiles>  (184) 
CC(C)[C@@H](C)Nc1ccnc2ccsc12

>  <energy_score>  (184) 
-37.640272

$$$$
P60868
     RDKit          3D

 14 15  0  0  0  0  0  0  0  0999 V2000
   -0.4573    5.9223  -18.5979 C   0  0  0  0  0  0  0  0  0  0  0  0
   -1.7412    5.2762  -19.0187 C   0  0  0  0  0  0  0  0  0  0  0  0
   -2.8533    5.9899  -19.2493 C   0  0  0  0  0  0  0  0  0  0  0  0
   -4.2008    5.4257  -19.5638 C   0  0  0  0  0  0  0  0  0  0  0  0
   -4.9693    5.5997  -18.3596 N   0  0  0  0  0  0  0  0  0  0  0  0
   -6.1914    4.9901  -18.1491 C   0  0  0  0  0  0  0  0  0  0  0  0
   -7.0148    4.5212  -19.1671 C   0  0  0  0  0  0  0  0  0  0  0  0
   -8.2565    3.9895  -18.8646 C   0  0  0  0  0  0  0  0  0  0  0  0
   -8.7703    3.8662  -17.6284 N   0  0  0  0  0  0  0  0  0  0  0  0
   -7.9806    4.3354  -16.6276 C   0  0  0  0  0  0  0  0  0  0  0  0
   -8.3386    4.3634  -15.2519 C   0  0  0  0  0  0  0  0  0  0  0  0
   -7.3493    4.8743  -14.4468 C   0  0  0  0  0  0  0  0  0  0  0  0
   -5.9929    5.3704  -15.3519 S   0  0  0  0  0  0  0  0  0  0  0  0
   -6.7179    4.8804  -16.8449 C   0  0  0  0  0  0  0  0  0  0  0  0
  1  2  1  0
  2  3  2  3
  3  4  1  0
  4  5  1  0
  5  6  1  0
  6  7  2  0
  7  8  1  0
  8  9  2  0
  9 10  1  0
 10 11  1  0
 11 12  2  0
 12 13  1  0
 13 14  1  0
 14  6  1  0
 14 10  2  0
M  END
>  <tags>  (185) 
openbind_xx01zvns2b_c1_knitwork_impure,fragmenstein_placed,openbind_xx01zvns2b_c1_scaffolds_chemok_bbok,BulkDock Fragalysis export,openbind_xx01zvns2b_c1_scaffolds

>  <placement_batch>  (185) 
openbind_xx01zvns2b_c1_knitwork_impure

>  <inspiration_score>  (185) 
None

>  <name>  (185) 
P60868

>  <HIPPO Pose ID>  (185) 
60868

>  <ref_pdb>  (185) 
Z3515a

>  <inchikey>  (185) 
LIRHKYZOQLGAAU-UHFFFAOYSA-N

>  <alias>  (185) 
None

>  <ref_mols>  (185) 
Z0089a,Z3515a

>  <subsites>  (185) 
1 - Z4590/B/203/1

>  <distance_score>  (185) 
0.59604

>  <HIPPO Compound ID>  (185) 
108384

>  <smiles>  (185) 
CC=CCNc1ccnc2ccsc12

>  <energy_score>  (185) 
-25.873969

$$$$
P60869
     RDKit          3D

 14 15  0  0  0  0  0  0  0  0999 V2000
   -2.0107    4.5114  -19.1996 C   0  0  0  0  0  0  0  0  0  0  0  0
   -3.0793    5.4517  -18.6589 C   0  0  0  0  0  0  0  0  0  0  0  0
   -2.5275    6.8789  -18.6186 C   0  0  0  0  0  0  0  0  0  0  0  0
   -4.3371    5.3728  -19.5322 C   0  0  0  0  0  0  0  0  0  0  0  0
   -5.4598    6.0396  -18.8736 N   0  0  0  0  0  0  0  0  0  0  0  0
   -6.4270    5.1588  -18.3332 C   0  0  0  0  0  0  0  0  0  0  0  0
   -7.2366    4.3945  -19.1752 C   0  0  0  0  0  0  0  0  0  0  0  0
   -8.3032    3.6923  -18.6535 C   0  0  0  0  0  0  0  0  0  0  0  0
   -8.6288    3.6343  -17.3529 N   0  0  0  0  0  0  0  0  0  0  0  0
   -7.8007    4.3147  -16.5156 C   0  0  0  0  0  0  0  0  0  0  0  0
   -7.9552    4.3747  -15.1019 C   0  0  0  0  0  0  0  0  0  0  0  0
   -6.9709    5.1123  -14.4904 C   0  0  0  0  0  0  0  0  0  0  0  0
   -5.8775    5.7735  -15.6206 S   0  0  0  0  0  0  0  0  0  0  0  0
   -6.7050    5.0612  -16.9568 C   0  0  0  0  0  0  0  0  0  0  0  0
  1  2  1  0
  2  3  1  0
  2  4  1  0
  4  5  1  0
  5  6  1  0
  6  7  2  0
  7  8  1  0
  8  9  2  0
  9 10  1  0
 10 11  1  0
 11 12  2  0
 12 13  1  0
 13 14  1  0
 14  6  1  0
 14 10  2  0
M  END
>  <tags>  (186) 
openbind_xx01zvns2b_c1_knitwork_impure,fragmenstein_placed,openbind_xx01zvns2b_c1_scaffolds_chemok_bbok,BulkDock Fragalysis export,openbind_xx01zvns2b_c1_scaffolds

>  <placement_batch>  (186) 
openbind_xx01zvns2b_c1_knitwork_impure

>  <inspiration_score>  (186) 
None

>  <name>  (186) 
P60869

>  <HIPPO Pose ID>  (186) 
60869

>  <ref_pdb>  (186) 
Z3515a

>  <inchikey>  (186) 
DQRUAVNAEHNBMF-UHFFFAOYSA-N

>  <alias>  (186) 
None

>  <ref_mols>  (186) 
Z0089a,Z3515a

>  <subsites>  (186) 
1 - Z4590/B/203/1

>  <distance_score>  (186) 
0.672357

>  <HIPPO Compound ID>  (186) 
108385

>  <smiles>  (186) 
CC(C)CNc1ccnc2ccsc12

>  <energy_score>  (186) 
-114.6109

$$$$
P60870
     RDKit          3D

 15 16  0  0  0  0  0  0  0  0999 V2000
   -2.2305    6.4884  -18.2163 C   0  0  0  0  0  0  0  0  0  0  0  0
   -2.9377    5.2233  -18.6862 C   0  0  0  0  0  0  0  0  0  0  0  0
   -4.1525    5.4758  -19.6006 C   0  0  2  0  0  0  0  0  0  0  0  0
   -3.8540    6.4355  -20.7751 C   0  0  0  0  0  0  0  0  0  0  0  0
   -2.4719    5.9251  -21.7765 Cl  0  0  0  0  0  0  0  0  0  0  0  0
   -5.2535    6.0428  -18.7871 N   0  0  0  0  0  0  0  0  0  0  0  0
   -6.2415    5.1421  -18.3325 C   0  0  0  0  0  0  0  0  0  0  0  0
   -7.0510    4.4467  -19.2312 C   0  0  0  0  0  0  0  0  0  0  0  0
   -8.1646    3.7679  -18.7755 C   0  0  0  0  0  0  0  0  0  0  0  0
   -8.5451    3.6790  -17.4916 N   0  0  0  0  0  0  0  0  0  0  0  0
   -7.7365    4.3127  -16.6007 C   0  0  0  0  0  0  0  0  0  0  0  0
   -7.9608    4.3556  -15.1959 C   0  0  0  0  0  0  0  0  0  0  0  0
   -6.9869    5.0530  -14.5231 C   0  0  0  0  0  0  0  0  0  0  0  0
   -5.8200    5.7008  -15.5861 S   0  0  0  0  0  0  0  0  0  0  0  0
   -6.5966    5.0290  -16.9737 C   0  0  0  0  0  0  0  0  0  0  0  0
  1  2  1  0
  3  2  1  1
  3  4  1  0
  4  5  1  0
  3  6  1  0
  6  7  1  0
  7  8  2  0
  8  9  1  0
  9 10  2  0
 10 11  1  0
 11 12  1  0
 12 13  2  0
 13 14  1  0
 14 15  1  0
 15  7  1  0
 15 11  2  0
M  END
>  <tags>  (187) 
openbind_xx01zvns2b_c1_knitwork_impure,fragmenstein_placed,openbind_xx01zvns2b_c1_scaffolds_chemok_bbok,BulkDock Fragalysis export,openbind_xx01zvns2b_c1_scaffolds

>  <placement_batch>  (187) 
openbind_xx01zvns2b_c1_knitwork_impure

>  <inspiration_score>  (187) 
None

>  <name>  (187) 
P60870

>  <HIPPO Pose ID>  (187) 
60870

>  <ref_pdb>  (187) 
Z3515a

>  <inchikey>  (187) 
HZTNALZPMNLABP-UHFFFAOYSA-N

>  <alias>  (187) 
None

>  <ref_mols>  (187) 
Z0089a,Z3515a

>  <subsites>  (187) 
1 - Z4590/B/203/1

>  <distance_score>  (187) 
0.63266

>  <HIPPO Compound ID>  (187) 
108386

>  <smiles>  (187) 
CC[C@H](CCl)Nc1ccnc2ccsc12

>  <energy_score>  (187) 
-27.028827

$$$$
P60871
     RDKit          3D

 16 17  0  0  0  0  0  0  0  0999 V2000
   -1.7185    3.5980  -18.8877 C   0  0  0  0  0  0  0  0  0  0  0  0
   -2.4079    4.4934  -18.5017 C   0  0  0  0  0  0  0  0  0  0  0  0
   -3.3628    5.4475  -17.9492 C   0  0  0  0  0  0  0  0  0  0  0  0
   -4.1395    6.2494  -19.0169 C   0  0  0  0  0  0  0  0  0  0  0  0
   -3.4980    7.6544  -19.1216 C   0  0  0  0  0  0  0  0  0  0  0  0
   -4.0960    5.6381  -20.4144 C   0  0  0  0  0  0  0  0  0  0  0  0
   -5.5465    6.4868  -18.6166 N   0  0  0  0  0  0  0  0  0  0  0  0
   -6.3871    5.4391  -18.2127 C   0  0  0  0  0  0  0  0  0  0  0  0
   -7.0371    4.6317  -19.1442 C   0  0  0  0  0  0  0  0  0  0  0  0
   -8.0558    3.7910  -18.7383 C   0  0  0  0  0  0  0  0  0  0  0  0
   -8.4683    3.6306  -17.4704 N   0  0  0  0  0  0  0  0  0  0  0  0
   -7.7786    4.3458  -16.5422 C   0  0  0  0  0  0  0  0  0  0  0  0
   -8.0385    4.3230  -15.1441 C   0  0  0  0  0  0  0  0  0  0  0  0
   -7.1825    5.1182  -14.4230 C   0  0  0  0  0  0  0  0  0  0  0  0
   -6.0908    5.9454  -15.4342 S   0  0  0  0  0  0  0  0  0  0  0  0
   -6.7443    5.2255  -16.8648 C   0  0  0  0  0  0  0  0  0  0  0  0
  1  2  3  0
  2  3  1  0
  3  4  1  0
  4  5  1  0
  4  6  1  0
  4  7  1  0
  7  8  1  0
  8  9  2  0
  9 10  1  0
 10 11  2  0
 11 12  1  0
 12 13  1  0
 13 14  2  0
 14 15  1  0
 15 16  1  0
 16  8  1  0
 16 12  2  0
M  END
>  <tags>  (188) 
openbind_xx01zvns2b_c1_knitwork_impure,BulkDock Fragalysis export,fragmenstein_placed,openbind_xx01zvns2b_c1_scaffolds

>  <placement_batch>  (188) 
openbind_xx01zvns2b_c1_knitwork_impure

>  <inspiration_score>  (188) 
None

>  <name>  (188) 
P60871

>  <HIPPO Pose ID>  (188) 
60871

>  <ref_pdb>  (188) 
Z3515a

>  <inchikey>  (188) 
KGLMRCGIKAKFCH-UHFFFAOYSA-N

>  <alias>  (188) 
None

>  <ref_mols>  (188) 
Z0089a,Z3515a

>  <subsites>  (188) 
1 - Z4590/B/203/1

>  <distance_score>  (188) 
0.991367

>  <HIPPO Compound ID>  (188) 
108387

>  <smiles>  (188) 
C#CCC(C)(C)Nc1ccnc2ccsc12

>  <energy_score>  (188) 
-33.992852

$$$$
P60872
     RDKit          3D

 15 16  0  0  0  0  0  0  0  0999 V2000
   -2.5824    7.2799  -19.5843 C   0  0  0  0  0  0  0  0  0  0  0  0
   -2.8647    5.9871  -19.3433 C   0  0  0  0  0  0  0  0  0  0  0  0
   -1.8691    4.9845  -18.7958 C   0  0  0  0  0  0  0  0  0  0  0  0
   -0.5318    5.5762  -18.3536 C   0  0  0  0  0  0  0  0  0  0  0  0
   -4.2524    5.4534  -19.6105 C   0  0  0  0  0  0  0  0  0  0  0  0
   -4.8786    5.2783  -18.3302 N   0  0  0  0  0  0  0  0  0  0  0  0
   -6.1662    4.8429  -18.1289 C   0  0  0  0  0  0  0  0  0  0  0  0
   -7.0050    4.3844  -19.1406 C   0  0  0  0  0  0  0  0  0  0  0  0
   -8.2855    3.9560  -18.8378 C   0  0  0  0  0  0  0  0  0  0  0  0
   -8.8191    3.9090  -17.6051 N   0  0  0  0  0  0  0  0  0  0  0  0
   -8.0101    4.3564  -16.6097 C   0  0  0  0  0  0  0  0  0  0  0  0
   -8.3690    4.4196  -15.2352 C   0  0  0  0  0  0  0  0  0  0  0  0
   -7.3613    4.9041  -14.4367 C   0  0  0  0  0  0  0  0  0  0  0  0
   -5.9817    5.3239  -15.3458 S   0  0  0  0  0  0  0  0  0  0  0  0
   -6.7167    4.8225  -16.8303 C   0  0  0  0  0  0  0  0  0  0  0  0
  1  2  2  0
  2  3  1  0
  3  4  1  0
  2  5  1  0
  5  6  1  0
  6  7  1  0
  7  8  2  0
  8  9  1  0
  9 10  2  0
 10 11  1  0
 11 12  1  0
 12 13  2  0
 13 14  1  0
 14 15  1  0
 15  7  1  0
 15 11  2  0
M  END
>  <tags>  (189) 
openbind_xx01zvns2b_c1_knitwork_impure,BulkDock Fragalysis export,fragmenstein_placed,openbind_xx01zvns2b_c1_scaffolds

>  <placement_batch>  (189) 
openbind_xx01zvns2b_c1_knitwork_impure

>  <inspiration_score>  (189) 
None

>  <name>  (189) 
P60872

>  <HIPPO Pose ID>  (189) 
60872

>  <ref_pdb>  (189) 
Z3515a

>  <inchikey>  (189) 
JDGBBORGRFXTJC-UHFFFAOYSA-N

>  <alias>  (189) 
None

>  <ref_mols>  (189) 
Z0089a,Z3515a

>  <subsites>  (189) 
1 - Z4590/B/203/1

>  <distance_score>  (189) 
0.595624

>  <HIPPO Compound ID>  (189) 
108388

>  <smiles>  (189) 
C=C(CC)CNc1ccnc2ccsc12

>  <energy_score>  (189) 
-29.319579

$$$$
P60873
     RDKit          3D

 15 16  0  0  0  0  0  0  0  0999 V2000
   -1.7968    7.2382  -18.2388 C   0  0  0  0  0  0  0  0  0  0  0  0
   -2.7502    6.6527  -18.6722 C   0  0  0  0  0  0  0  0  0  0  0  0
   -3.8904    5.9139  -19.2562 C   0  0  0  0  0  0  0  0  0  0  0  0
   -3.2602    4.8049  -20.0798 C   0  0  0  0  0  0  0  0  0  0  0  0
   -4.7027    6.8945  -20.1091 C   0  0  0  0  0  0  0  0  0  0  0  0
   -4.6489    5.3587  -18.1452 N   0  0  0  0  0  0  0  0  0  0  0  0
   -5.9499    4.9201  -18.0717 C   0  0  0  0  0  0  0  0  0  0  0  0
   -6.7247    4.4889  -19.1443 C   0  0  0  0  0  0  0  0  0  0  0  0
   -8.0254    4.0511  -18.9424 C   0  0  0  0  0  0  0  0  0  0  0  0
   -8.6435    3.9712  -17.7527 N   0  0  0  0  0  0  0  0  0  0  0  0
   -7.9019    4.3828  -16.6936 C   0  0  0  0  0  0  0  0  0  0  0  0
   -8.3553    4.4008  -15.3462 C   0  0  0  0  0  0  0  0  0  0  0  0
   -7.4042    4.8559  -14.4656 C   0  0  0  0  0  0  0  0  0  0  0  0
   -5.9655    5.3019  -15.2644 S   0  0  0  0  0  0  0  0  0  0  0  0
   -6.5955    4.8502  -16.8142 C   0  0  0  0  0  0  0  0  0  0  0  0
  1  2  3  0
  2  3  1  0
  3  4  1  0
  3  5  1  0
  3  6  1  0
  6  7  1  0
  7  8  2  0
  8  9  1  0
  9 10  2  0
 10 11  1  0
 11 12  1  0
 12 13  2  0
 13 14  1  0
 14 15  1  0
 15  7  1  0
 15 11  2  0
M  END
>  <tags>  (190) 
openbind_xx01zvns2b_c1_knitwork_impure,fragmenstein_placed,openbind_xx01zvns2b_c1_scaffolds_chemok_bbok,BulkDock Fragalysis export,openbind_xx01zvns2b_c1_scaffolds

>  <placement_batch>  (190) 
openbind_xx01zvns2b_c1_knitwork_impure

>  <inspiration_score>  (190) 
None

>  <name>  (190) 
P60873

>  <HIPPO Pose ID>  (190) 
60873

>  <ref_pdb>  (190) 
Z3515a

>  <inchikey>  (190) 
JZLGLNFKHZQSCU-UHFFFAOYSA-N

>  <alias>  (190) 
None

>  <ref_mols>  (190) 
Z0089a,Z3515a

>  <subsites>  (190) 
1 - Z4590/B/203/1

>  <distance_score>  (190) 
0.687335

>  <HIPPO Compound ID>  (190) 
108389

>  <smiles>  (190) 
C#CC(C)(C)Nc1ccnc2ccsc12

>  <energy_score>  (190) 
-271.330896

$$$$
P60874
     RDKit          3D

 15 16  0  0  0  0  0  0  0  0999 V2000
    0.3220    6.1809  -17.8657 C   0  0  0  0  0  0  0  0  0  0  0  0
   -0.5359    6.2063  -18.8933 C   0  0  0  0  0  0  0  0  0  0  0  0
   -1.6928    5.2589  -19.0567 C   0  0  0  0  0  0  0  0  0  0  0  0
   -3.0067    6.0107  -18.9010 C   0  0  0  0  0  0  0  0  0  0  0  0
   -4.1893    5.0638  -19.0195 C   0  0  0  0  0  0  0  0  0  0  0  0
   -5.4178    5.8310  -18.8824 N   0  0  0  0  0  0  0  0  0  0  0  0
   -6.4760    5.0718  -18.3428 C   0  0  0  0  0  0  0  0  0  0  0  0
   -7.3023    4.3275  -19.1807 C   0  0  0  0  0  0  0  0  0  0  0  0
   -8.3980    3.6768  -18.6532 C   0  0  0  0  0  0  0  0  0  0  0  0
   -8.7318    3.6449  -17.3527 N   0  0  0  0  0  0  0  0  0  0  0  0
   -7.8850    4.3061  -16.5190 C   0  0  0  0  0  0  0  0  0  0  0  0
   -8.0388    4.3889  -15.1065 C   0  0  0  0  0  0  0  0  0  0  0  0
   -7.0255    5.0916  -14.5007 C   0  0  0  0  0  0  0  0  0  0  0  0
   -5.9025    5.6926  -15.6355 S   0  0  0  0  0  0  0  0  0  0  0  0
   -6.7608    5.0033  -16.9651 C   0  0  0  0  0  0  0  0  0  0  0  0
  1  2  2  0
  2  3  1  0
  3  4  1  0
  4  5  1  0
  5  6  1  0
  6  7  1  0
  7  8  2  0
  8  9  1  0
  9 10  2  0
 10 11  1  0
 11 12  1  0
 12 13  2  0
 13 14  1  0
 14 15  1  0
 15  7  1  0
 15 11  2  0
M  END
>  <tags>  (191) 
openbind_xx01zvns2b_c1_knitwork_impure,BulkDock Fragalysis export,fragmenstein_placed,openbind_xx01zvns2b_c1_scaffolds

>  <placement_batch>  (191) 
openbind_xx01zvns2b_c1_knitwork_impure

>  <inspiration_score>  (191) 
None

>  <name>  (191) 
P60874

>  <HIPPO Pose ID>  (191) 
60874

>  <ref_pdb>  (191) 
Z3515a

>  <inchikey>  (191) 
QEILFXJJAKEBMW-UHFFFAOYSA-N

>  <alias>  (191) 
None

>  <ref_mols>  (191) 
Z0089a,Z3515a

>  <subsites>  (191) 
1 - Z4590/B/203/1

>  <distance_score>  (191) 
0.763564

>  <HIPPO Compound ID>  (191) 
108390

>  <smiles>  (191) 
C=CCCCNc1ccnc2ccsc12

>  <energy_score>  (191) 
-180.226794

$$$$
P60875
     RDKit          3D

 14 15  0  0  0  0  0  0  0  0999 V2000
   -0.7451    5.6605  -18.1381 C   0  0  0  0  0  0  0  0  0  0  0  0
   -1.7353    5.2388  -18.9356 C   0  0  0  0  0  0  0  0  0  0  0  0
   -3.0219    5.9864  -19.1053 C   0  0  0  0  0  0  0  0  0  0  0  0
   -4.2229    5.0561  -18.9858 C   0  0  0  0  0  0  0  0  0  0  0  0
   -5.4499    5.8388  -18.8997 N   0  0  0  0  0  0  0  0  0  0  0  0
   -6.5084    5.0859  -18.3428 C   0  0  0  0  0  0  0  0  0  0  0  0
   -7.3354    4.3292  -19.1698 C   0  0  0  0  0  0  0  0  0  0  0  0
   -8.4212    3.6720  -18.6307 C   0  0  0  0  0  0  0  0  0  0  0  0
   -8.7446    3.6448  -17.3277 N   0  0  0  0  0  0  0  0  0  0  0  0
   -7.8957    4.3153  -16.5039 C   0  0  0  0  0  0  0  0  0  0  0  0
   -8.0367    4.3985  -15.0902 C   0  0  0  0  0  0  0  0  0  0  0  0
   -7.0238    5.1107  -14.4951 C   0  0  0  0  0  0  0  0  0  0  0  0
   -5.9168    5.7195  -15.6412 S   0  0  0  0  0  0  0  0  0  0  0  0
   -6.7812    5.0206  -16.9621 C   0  0  0  0  0  0  0  0  0  0  0  0
  1  2  2  0
  2  3  1  0
  3  4  1  0
  4  5  1  0
  5  6  1  0
  6  7  2  0
  7  8  1  0
  8  9  2  0
  9 10  1  0
 10 11  1  0
 11 12  2  0
 12 13  1  0
 13 14  1  0
 14  6  1  0
 14 10  2  0
M  END
>  <tags>  (192) 
openbind_xx01zvns2b_c1_knitwork_impure,fragmenstein_placed,openbind_xx01zvns2b_c1_scaffolds_chemok_bbok,BulkDock Fragalysis export,openbind_xx01zvns2b_c1_scaffolds

>  <placement_batch>  (192) 
openbind_xx01zvns2b_c1_knitwork_impure

>  <inspiration_score>  (192) 
None

>  <name>  (192) 
P60875

>  <HIPPO Pose ID>  (192) 
60875

>  <ref_pdb>  (192) 
Z3515a

>  <inchikey>  (192) 
PLHAEMAZMAOWEE-UHFFFAOYSA-N

>  <alias>  (192) 
None

>  <ref_mols>  (192) 
Z0089a,Z3515a

>  <subsites>  (192) 
1 - Z4590/B/203/1

>  <distance_score>  (192) 
0.809068

>  <HIPPO Compound ID>  (192) 
108391

>  <smiles>  (192) 
C=CCCNc1ccnc2ccsc12

>  <energy_score>  (192) 
-26.203006

$$$$
P60876
     RDKit          3D

 15 16  0  0  0  0  0  0  0  0999 V2000
   -0.2584    6.4897  -18.8358 C   0  0  0  0  0  0  0  0  0  0  0  0
   -1.9971    6.9419  -18.6196 S   0  0  0  0  0  0  0  0  0  0  0  0
   -2.2807    8.2971  -19.5348 O   0  0  0  0  0  0  0  0  0  0  0  0
   -2.6694    5.5191  -19.5238 C   0  0  0  0  0  0  0  0  0  0  0  0
   -4.1942    5.5609  -19.5450 C   0  0  0  0  0  0  0  0  0  0  0  0
   -4.7228    5.0813  -18.2806 N   0  0  0  0  0  0  0  0  0  0  0  0
   -6.0698    4.7923  -18.1043 C   0  0  0  0  0  0  0  0  0  0  0  0
   -6.9291    4.3976  -19.1288 C   0  0  0  0  0  0  0  0  0  0  0  0
   -8.2373    4.0439  -18.8441 C   0  0  0  0  0  0  0  0  0  0  0  0
   -8.7826    4.0112  -17.6172 N   0  0  0  0  0  0  0  0  0  0  0  0
   -7.9615    4.4048  -16.6100 C   0  0  0  0  0  0  0  0  0  0  0  0
   -8.3298    4.4608  -15.2374 C   0  0  0  0  0  0  0  0  0  0  0  0
   -7.3091    4.8928  -14.4252 C   0  0  0  0  0  0  0  0  0  0  0  0
   -5.9031    5.2616  -15.3171 S   0  0  0  0  0  0  0  0  0  0  0  0
   -6.6420    4.8030  -16.8133 C   0  0  0  0  0  0  0  0  0  0  0  0
  2  1  1  6
  2  3  1  0
  2  4  1  0
  4  5  1  0
  5  6  1  0
  6  7  1  0
  7  8  2  0
  8  9  1  0
  9 10  2  0
 10 11  1  0
 11 12  1  0
 12 13  2  0
 13 14  1  0
 14 15  1  0
 15  7  1  0
 15 11  2  0
M  CHG  2   2   1   3  -1
M  END
>  <tags>  (193) 
openbind_xx01zvns2b_c1_knitwork_impure,fragmenstein_placed,openbind_xx01zvns2b_c1_scaffolds_chemok_bbok,BulkDock Fragalysis export,openbind_xx01zvns2b_c1_scaffolds

>  <placement_batch>  (193) 
openbind_xx01zvns2b_c1_knitwork_impure

>  <inspiration_score>  (193) 
None

>  <name>  (193) 
P60876

>  <HIPPO Pose ID>  (193) 
60876

>  <ref_pdb>  (193) 
Z3515a

>  <inchikey>  (193) 
XLXSDQKHYNLBJY-UHFFFAOYSA-N

>  <alias>  (193) 
None

>  <ref_mols>  (193) 
Z0089a,Z3515a

>  <subsites>  (193) 
1 - Z4590/B/203/1

>  <distance_score>  (193) 
0.677619

>  <HIPPO Compound ID>  (193) 
108392

>  <smiles>  (193) 
C[S@@+]([O-])CCNc1ccnc2ccsc12

>  <energy_score>  (193) 
-37.851661

$$$$
P60877
     RDKit          3D

 14 15  0  0  0  0  0  0  0  0999 V2000
   -2.3897    7.0094  -19.0428 C   0  0  0  0  0  0  0  0  0  0  0  0
   -2.7959    5.6718  -19.6422 C   0  0  1  0  0  0  0  0  0  0  0  0
   -2.0242    4.3423  -18.7465 Cl  0  0  0  0  0  0  0  0  0  0  0  0
   -4.3115    5.4504  -19.6964 C   0  0  0  0  0  0  0  0  0  0  0  0
   -4.9399    5.5470  -18.3916 N   0  0  0  0  0  0  0  0  0  0  0  0
   -6.1823    4.9914  -18.1289 C   0  0  0  0  0  0  0  0  0  0  0  0
   -7.0683    4.5660  -19.1163 C   0  0  0  0  0  0  0  0  0  0  0  0
   -8.3083    4.0577  -18.7727 C   0  0  0  0  0  0  0  0  0  0  0  0
   -8.7707    3.9279  -17.5188 N   0  0  0  0  0  0  0  0  0  0  0  0
   -7.9297    4.3660  -16.5456 C   0  0  0  0  0  0  0  0  0  0  0  0
   -8.2341    4.3825  -15.1564 C   0  0  0  0  0  0  0  0  0  0  0  0
   -7.2036    4.8657  -14.3866 C   0  0  0  0  0  0  0  0  0  0  0  0
   -5.8721    5.3435  -15.3386 S   0  0  0  0  0  0  0  0  0  0  0  0
   -6.6616    4.8822  -16.8068 C   0  0  0  0  0  0  0  0  0  0  0  0
  2  1  1  1
  2  3  1  0
  2  4  1  0
  4  5  1  0
  5  6  1  0
  6  7  2  0
  7  8  1  0
  8  9  2  0
  9 10  1  0
 10 11  1  0
 11 12  2  0
 12 13  1  0
 13 14  1  0
 14  6  1  0
 14 10  2  0
M  END
>  <tags>  (194) 
openbind_xx01zvns2b_c1_knitwork_impure,BulkDock Fragalysis export,fragmenstein_placed,openbind_xx01zvns2b_c1_scaffolds

>  <placement_batch>  (194) 
openbind_xx01zvns2b_c1_knitwork_impure

>  <inspiration_score>  (194) 
None

>  <name>  (194) 
P60877

>  <HIPPO Pose ID>  (194) 
60877

>  <ref_pdb>  (194) 
Z3515a

>  <inchikey>  (194) 
OLASSUAKDLYHHS-UHFFFAOYSA-N

>  <alias>  (194) 
None

>  <ref_mols>  (194) 
Z0089a,Z3515a

>  <subsites>  (194) 
1 - Z4590/B/203/1

>  <distance_score>  (194) 
0.554463

>  <HIPPO Compound ID>  (194) 
108394

>  <smiles>  (194) 
C[C@@H](Cl)CNc1ccnc2ccsc12

>  <energy_score>  (194) 
-33.027712

$$$$
P60878
     RDKit          3D

 14 15  0  0  0  0  0  0  0  0999 V2000
   -0.3296    6.6789  -18.9981 C   0  0  0  0  0  0  0  0  0  0  0  0
   -1.7360    6.3315  -19.2017 C   0  0  0  0  0  0  0  0  0  0  0  0
   -2.8799    6.0071  -19.3681 C   0  0  0  0  0  0  0  0  0  0  0  0
   -4.2795    5.6108  -19.5523 C   0  0  0  0  0  0  0  0  0  0  0  0
   -4.7646    5.0859  -18.3006 N   0  0  0  0  0  0  0  0  0  0  0  0
   -6.1004    4.7736  -18.1131 C   0  0  0  0  0  0  0  0  0  0  0  0
   -6.9510    4.3683  -19.1416 C   0  0  0  0  0  0  0  0  0  0  0  0
   -8.2573    4.0074  -18.8628 C   0  0  0  0  0  0  0  0  0  0  0  0
   -8.8079    3.9811  -17.6386 N   0  0  0  0  0  0  0  0  0  0  0  0
   -7.9945    4.3851  -16.6294 C   0  0  0  0  0  0  0  0  0  0  0  0
   -8.3773    4.4524  -15.2640 C   0  0  0  0  0  0  0  0  0  0  0  0
   -7.3652    4.8942  -14.4459 C   0  0  0  0  0  0  0  0  0  0  0  0
   -5.9505    5.2566  -15.3277 S   0  0  0  0  0  0  0  0  0  0  0  0
   -6.6756    4.7863  -16.8261 C   0  0  0  0  0  0  0  0  0  0  0  0
  1  2  1  0
  2  3  3  0
  3  4  1  0
  4  5  1  0
  5  6  1  0
  6  7  2  0
  7  8  1  0
  8  9  2  0
  9 10  1  0
 10 11  1  0
 11 12  2  0
 12 13  1  0
 13 14  1  0
 14  6  1  0
 14 10  2  0
M  END
>  <tags>  (195) 
openbind_xx01zvns2b_c1_knitwork_impure,fragmenstein_placed,openbind_xx01zvns2b_c1_scaffolds_chemok_bbok,BulkDock Fragalysis export,openbind_xx01zvns2b_c1_scaffolds

>  <placement_batch>  (195) 
openbind_xx01zvns2b_c1_knitwork_impure

>  <inspiration_score>  (195) 
None

>  <name>  (195) 
P60878

>  <HIPPO Pose ID>  (195) 
60878

>  <ref_pdb>  (195) 
Z3515a

>  <inchikey>  (195) 
KGTBMRSXKDMOPW-UHFFFAOYSA-N

>  <alias>  (195) 
None

>  <ref_mols>  (195) 
Z0089a,Z3515a

>  <subsites>  (195) 
1 - Z4590/B/203/1

>  <distance_score>  (195) 
0.826844

>  <HIPPO Compound ID>  (195) 
108396

>  <smiles>  (195) 
CC#CCNc1ccnc2ccsc12

>  <energy_score>  (195) 
-23.841234

$$$$
P60879
     RDKit          3D

 14 15  0  0  0  0  0  0  0  0999 V2000
   -1.9281    4.5483  -18.9844 C   0  0  0  0  0  0  0  0  0  0  0  0
   -2.7585    5.5669  -19.2311 C   0  0  0  0  0  0  0  0  0  0  0  0
   -2.1608    7.1870  -19.1491 Cl  0  0  0  0  0  0  0  0  0  0  0  0
   -4.2131    5.4215  -19.5709 C   0  0  0  0  0  0  0  0  0  0  0  0
   -4.9742    5.6209  -18.3586 N   0  0  0  0  0  0  0  0  0  0  0  0
   -6.1935    5.0154  -18.1300 C   0  0  0  0  0  0  0  0  0  0  0  0
   -7.0186    4.5295  -19.1423 C   0  0  0  0  0  0  0  0  0  0  0  0
   -8.2545    3.9881  -18.8361 C   0  0  0  0  0  0  0  0  0  0  0  0
   -8.7611    3.8679  -17.5983 N   0  0  0  0  0  0  0  0  0  0  0  0
   -7.9751    4.3554  -16.6039 C   0  0  0  0  0  0  0  0  0  0  0  0
   -8.3387    4.3902  -15.2322 C   0  0  0  0  0  0  0  0  0  0  0  0
   -7.3549    4.9162  -14.4298 C   0  0  0  0  0  0  0  0  0  0  0  0
   -5.9974    5.4118  -15.3356 S   0  0  0  0  0  0  0  0  0  0  0  0
   -6.7178    4.9112  -16.8263 C   0  0  0  0  0  0  0  0  0  0  0  0
  1  2  2  0
  2  3  1  0
  2  4  1  0
  4  5  1  0
  5  6  1  0
  6  7  2  0
  7  8  1  0
  8  9  2  0
  9 10  1  0
 10 11  1  0
 11 12  2  0
 12 13  1  0
 13 14  1  0
 14  6  1  0
 14 10  2  0
M  END
>  <tags>  (196) 
openbind_xx01zvns2b_c1_knitwork_impure,fragmenstein_placed,openbind_xx01zvns2b_c1_scaffolds_chemok_bbok,BulkDock Fragalysis export,openbind_xx01zvns2b_c1_scaffolds

>  <placement_batch>  (196) 
openbind_xx01zvns2b_c1_knitwork_impure

>  <inspiration_score>  (196) 
None

>  <name>  (196) 
P60879

>  <HIPPO Pose ID>  (196) 
60879

>  <ref_pdb>  (196) 
Z3515a

>  <inchikey>  (196) 
SFQSDWUKOWQCPC-UHFFFAOYSA-N

>  <alias>  (196) 
None

>  <ref_mols>  (196) 
Z0089a,Z3515a

>  <subsites>  (196) 
1 - Z4590/B/203/1

>  <distance_score>  (196) 
0.803503

>  <HIPPO Compound ID>  (196) 
108397

>  <smiles>  (196) 
C=C(Cl)CNc1ccnc2ccsc12

>  <energy_score>  (196) 
-28.533295

$$$$
P60880
     RDKit          3D

 15 16  0  0  0  0  0  0  0  0999 V2000
   -2.6333    8.1890  -19.1663 C   0  0  0  0  0  0  0  0  0  0  0  0
   -2.0196    6.8175  -19.1351 C   0  0  0  0  0  0  0  0  0  0  0  0
   -0.5336    6.8046  -18.8861 C   0  0  0  0  0  0  0  0  0  0  0  0
   -2.6965    5.6623  -19.2897 C   0  0  0  0  0  0  0  0  0  0  0  0
   -4.1625    5.4836  -19.5469 C   0  0  0  0  0  0  0  0  0  0  0  0
   -4.7436    5.1157  -18.2857 N   0  0  0  0  0  0  0  0  0  0  0  0
   -6.0767    4.8004  -18.1139 C   0  0  0  0  0  0  0  0  0  0  0  0
   -6.9257    4.4043  -19.1451 C   0  0  0  0  0  0  0  0  0  0  0  0
   -8.2319    4.0377  -18.8686 C   0  0  0  0  0  0  0  0  0  0  0  0
   -8.7847    3.9980  -17.6448 N   0  0  0  0  0  0  0  0  0  0  0  0
   -7.9718    4.3942  -16.6315 C   0  0  0  0  0  0  0  0  0  0  0  0
   -8.3487    4.4459  -15.2611 C   0  0  0  0  0  0  0  0  0  0  0  0
   -7.3357    4.8822  -14.4416 C   0  0  0  0  0  0  0  0  0  0  0  0
   -5.9276    5.2637  -15.3245 S   0  0  0  0  0  0  0  0  0  0  0  0
   -6.6542    4.8025  -16.8259 C   0  0  0  0  0  0  0  0  0  0  0  0
  1  2  1  0
  2  3  1  0
  2  4  2  3
  4  5  1  0
  5  6  1  0
  6  7  1  0
  7  8  2  0
  8  9  1  0
  9 10  2  0
 10 11  1  0
 11 12  1  0
 12 13  2  0
 13 14  1  0
 14 15  1  0
 15  7  1  0
 15 11  2  0
M  END
>  <tags>  (197) 
openbind_xx01zvns2b_c1_knitwork_impure,BulkDock Fragalysis export,fragmenstein_placed,openbind_xx01zvns2b_c1_scaffolds

>  <placement_batch>  (197) 
openbind_xx01zvns2b_c1_knitwork_impure

>  <inspiration_score>  (197) 
None

>  <name>  (197) 
P60880

>  <HIPPO Pose ID>  (197) 
60880

>  <ref_pdb>  (197) 
Z3515a

>  <inchikey>  (197) 
BXMZAMUNRUSFSC-UHFFFAOYSA-N

>  <alias>  (197) 
None

>  <ref_mols>  (197) 
Z0089a,Z3515a

>  <subsites>  (197) 
1 - Z4590/B/203/1

>  <distance_score>  (197) 
0.483609

>  <HIPPO Compound ID>  (197) 
108398

>  <smiles>  (197) 
CC(C)=CCNc1ccnc2ccsc12

>  <energy_score>  (197) 
-53.471003

$$$$
P60881
     RDKit          3D

 15 16  0  0  0  0  0  0  0  0999 V2000
   -0.7165    8.1074  -18.0864 C   0  0  0  0  0  0  0  0  0  0  0  0
   -0.9528    7.4790  -19.4510 C   0  0  0  0  0  0  0  0  0  0  0  0
   -2.3530    6.8830  -19.6147 C   0  0  0  0  0  0  0  0  0  0  0  0
   -2.6179    5.7023  -18.6827 C   0  0  0  0  0  0  0  0  0  0  0  0
   -3.9359    4.9924  -18.9768 C   0  0  0  0  0  0  0  0  0  0  0  0
   -5.0715    5.8664  -18.7046 N   0  0  0  0  0  0  0  0  0  0  0  0
   -6.2193    5.1499  -18.2974 C   0  0  0  0  0  0  0  0  0  0  0  0
   -7.0232    4.5011  -19.2327 C   0  0  0  0  0  0  0  0  0  0  0  0
   -8.1850    3.8752  -18.8236 C   0  0  0  0  0  0  0  0  0  0  0  0
   -8.6105    3.7846  -17.5527 N   0  0  0  0  0  0  0  0  0  0  0  0
   -7.8024    4.3668  -16.6267 C   0  0  0  0  0  0  0  0  0  0  0  0
   -8.0622    4.3907  -15.2277 C   0  0  0  0  0  0  0  0  0  0  0  0
   -7.0722    5.0212  -14.5132 C   0  0  0  0  0  0  0  0  0  0  0  0
   -5.8425    5.6269  -15.5294 S   0  0  0  0  0  0  0  0  0  0  0  0
   -6.6192    5.0334  -16.9519 C   0  0  0  0  0  0  0  0  0  0  0  0
  1  2  1  0
  2  3  1  0
  3  4  1  0
  4  5  1  0
  5  6  1  0
  6  7  1  0
  7  8  2  0
  8  9  1  0
  9 10  2  0
 10 11  1  0
 11 12  1  0
 12 13  2  0
 13 14  1  0
 14 15  1  0
 15  7  1  0
 15 11  2  0
M  END
>  <tags>  (198) 
openbind_xx01zvns2b_c1_knitwork_impure,fragmenstein_placed,openbind_xx01zvns2b_c1_scaffolds_chemok_bbok,BulkDock Fragalysis export,openbind_xx01zvns2b_c1_scaffolds

>  <placement_batch>  (198) 
openbind_xx01zvns2b_c1_knitwork_impure

>  <inspiration_score>  (198) 
None

>  <name>  (198) 
P60881

>  <HIPPO Pose ID>  (198) 
60881

>  <ref_pdb>  (198) 
Z3515a

>  <inchikey>  (198) 
JKOJGNKTCVRBMD-UHFFFAOYSA-N

>  <alias>  (198) 
None

>  <ref_mols>  (198) 
Z0089a,Z3515a

>  <subsites>  (198) 
1 - Z4590/B/203/1

>  <distance_score>  (198) 
0.626284

>  <HIPPO Compound ID>  (198) 
108399

>  <smiles>  (198) 
CCCCCNc1ccnc2ccsc12

>  <energy_score>  (198) 
-20.638827

$$$$
P60882
     RDKit          3D

 15 16  0  0  0  0  0  0  0  0999 V2000
   -0.4200    5.7164  -18.1061 C   0  0  0  0  0  0  0  0  0  0  0  0
   -1.7559    4.6900  -18.7689 S   0  0  0  0  0  0  0  0  0  0  0  0
   -3.1302    5.8806  -18.7067 C   0  0  1  0  0  0  0  0  0  0  0  0
   -2.8761    7.0525  -19.6461 C   0  0  0  0  0  0  0  0  0  0  0  0
   -4.3887    5.0938  -19.0850 C   0  0  0  0  0  0  0  0  0  0  0  0
   -5.5906    5.9028  -18.8883 N   0  0  0  0  0  0  0  0  0  0  0  0
   -6.6250    5.1302  -18.3077 C   0  0  0  0  0  0  0  0  0  0  0  0
   -7.4475    4.3460  -19.1138 C   0  0  0  0  0  0  0  0  0  0  0  0
   -8.4970    3.6558  -18.5469 C   0  0  0  0  0  0  0  0  0  0  0  0
   -8.7847    3.6213  -17.2361 N   0  0  0  0  0  0  0  0  0  0  0  0
   -7.9320    4.3128  -16.4336 C   0  0  0  0  0  0  0  0  0  0  0  0
   -8.0318    4.3884  -15.0162 C   0  0  0  0  0  0  0  0  0  0  0  0
   -7.0164    5.1193  -14.4483 C   0  0  0  0  0  0  0  0  0  0  0  0
   -5.9568    5.7543  -15.6240 S   0  0  0  0  0  0  0  0  0  0  0  0
   -6.8511    5.0494  -16.9207 C   0  0  0  0  0  0  0  0  0  0  0  0
  1  2  1  0
  2  3  1  0
  3  4  1  6
  3  5  1  0
  5  6  1  0
  6  7  1  0
  7  8  2  0
  8  9  1  0
  9 10  2  0
 10 11  1  0
 11 12  1  0
 12 13  2  0
 13 14  1  0
 14 15  1  0
 15  7  1  0
 15 11  2  0
M  END
>  <tags>  (199) 
openbind_xx01zvns2b_c1_knitwork_impure,fragmenstein_placed,openbind_xx01zvns2b_c1_scaffolds_chemok_bbok,BulkDock Fragalysis export,openbind_xx01zvns2b_c1_scaffolds

>  <placement_batch>  (199) 
openbind_xx01zvns2b_c1_knitwork_impure

>  <inspiration_score>  (199) 
None

>  <name>  (199) 
P60882

>  <HIPPO Pose ID>  (199) 
60882

>  <ref_pdb>  (199) 
Z3515a

>  <inchikey>  (199) 
XECSGZSYVINGGV-UHFFFAOYSA-N

>  <alias>  (199) 
None

>  <ref_mols>  (199) 
Z0089a,Z3515a

>  <subsites>  (199) 
1 - Z4590/B/203/1

>  <distance_score>  (199) 
0.793083

>  <HIPPO Compound ID>  (199) 
108400

>  <smiles>  (199) 
CS[C@@H](C)CNc1ccnc2ccsc12

>  <energy_score>  (199) 
-26.47689

$$$$
P60883
     RDKit          3D

 16 17  0  0  0  0  0  0  0  0999 V2000
   -2.6924    6.1148  -17.2351 C   0  0  0  0  0  0  0  0  0  0  0  0
   -2.8467    5.7174  -18.7095 C   0  0  0  0  0  0  0  0  0  0  0  0
   -1.7758    4.6827  -19.0611 C   0  0  0  0  0  0  0  0  0  0  0  0
   -2.6617    6.9042  -19.5659 C   0  0  0  0  0  0  0  0  0  0  0  0
   -2.5191    7.8210  -20.2645 N   0  0  0  0  0  0  0  0  0  0  0  0
   -4.2095    5.0654  -18.9912 C   0  0  0  0  0  0  0  0  0  0  0  0
   -5.3351    5.9334  -18.6520 N   0  0  0  0  0  0  0  0  0  0  0  0
   -6.4469    5.1751  -18.2169 C   0  0  0  0  0  0  0  0  0  0  0  0
   -7.2296    4.4701  -19.1293 C   0  0  0  0  0  0  0  0  0  0  0  0
   -8.3505    3.7966  -18.6883 C   0  0  0  0  0  0  0  0  0  0  0  0
   -8.7515    3.7140  -17.4088 N   0  0  0  0  0  0  0  0  0  0  0  0
   -7.9552    4.3467  -16.5062 C   0  0  0  0  0  0  0  0  0  0  0  0
   -8.1911    4.3928  -15.1042 C   0  0  0  0  0  0  0  0  0  0  0  0
   -7.2105    5.0649  -14.4162 C   0  0  0  0  0  0  0  0  0  0  0  0
   -6.0217    5.6907  -15.4637 S   0  0  0  0  0  0  0  0  0  0  0  0
   -6.8083    5.0566  -16.8624 C   0  0  0  0  0  0  0  0  0  0  0  0
  1  2  1  0
  2  3  1  0
  2  4  1  0
  4  5  3  0
  2  6  1  0
  6  7  1  0
  7  8  1  0
  8  9  2  0
  9 10  1  0
 10 11  2  0
 11 12  1  0
 12 13  1  0
 13 14  2  0
 14 15  1  0
 15 16  1  0
 16  8  1  0
 16 12  2  0
M  END
>  <tags>  (200) 
openbind_xx01zvns2b_c1_knitwork_impure,BulkDock Fragalysis export,fragmenstein_placed,openbind_xx01zvns2b_c1_scaffolds

>  <placement_batch>  (200) 
openbind_xx01zvns2b_c1_knitwork_impure

>  <inspiration_score>  (200) 
None

>  <name>  (200) 
P60883

>  <HIPPO Pose ID>  (200) 
60883

>  <ref_pdb>  (200) 
Z3515a

>  <inchikey>  (200) 
ABVSGFGZFZLBBF-UHFFFAOYSA-N

>  <alias>  (200) 
None

>  <ref_mols>  (200) 
Z0089a,Z3515a

>  <subsites>  (200) 
1 - Z4590/B/203/1

>  <distance_score>  (200) 
0.659351

>  <HIPPO Compound ID>  (200) 
108401

>  <smiles>  (200) 
CC(C)(C#N)CNc1ccnc2ccsc12

>  <energy_score>  (200) 
-22.463582

$$$$
P60884
     RDKit          3D

 15 16  0  0  0  0  0  0  0  0999 V2000
   -1.9600    5.3055  -21.8836 N   0  0  0  0  0  0  0  0  0  0  0  0
   -1.7693    5.3304  -20.7389 C   0  0  0  0  0  0  0  0  0  0  0  0
   -1.6600    5.2750  -19.2783 C   0  0  0  0  0  0  0  0  0  0  0  0
   -2.8856    5.9281  -18.6614 C   0  0  0  0  0  0  0  0  0  0  0  0
   -4.1449    5.1062  -18.9199 C   0  0  0  0  0  0  0  0  0  0  0  0
   -5.2987    5.9255  -18.5949 N   0  0  0  0  0  0  0  0  0  0  0  0
   -6.4009    5.1481  -18.1907 C   0  0  0  0  0  0  0  0  0  0  0  0
   -7.1725    4.4600  -19.1252 C   0  0  0  0  0  0  0  0  0  0  0  0
   -8.3080    3.7937  -18.7111 C   0  0  0  0  0  0  0  0  0  0  0  0
   -8.7345    3.7070  -17.4398 N   0  0  0  0  0  0  0  0  0  0  0  0
   -7.9547    4.3343  -16.5192 C   0  0  0  0  0  0  0  0  0  0  0  0
   -8.2337    4.3969  -15.1284 C   0  0  0  0  0  0  0  0  0  0  0  0
   -7.2608    5.0564  -14.4161 C   0  0  0  0  0  0  0  0  0  0  0  0
   -6.0273    5.6531  -15.4318 S   0  0  0  0  0  0  0  0  0  0  0  0
   -6.7917    5.0289  -16.8471 C   0  0  0  0  0  0  0  0  0  0  0  0
  1  2  3  0
  2  3  1  0
  3  4  1  0
  4  5  1  0
  5  6  1  0
  6  7  1  0
  7  8  2  0
  8  9  1  0
  9 10  2  0
 10 11  1  0
 11 12  1  0
 12 13  2  0
 13 14  1  0
 14 15  1  0
 15  7  1  0
 15 11  2  0
M  END
>  <tags>  (201) 
openbind_xx01zvns2b_c1_knitwork_impure,fragmenstein_placed,openbind_xx01zvns2b_c1_scaffolds_chemok_bbok,BulkDock Fragalysis export,openbind_xx01zvns2b_c1_scaffolds

>  <placement_batch>  (201) 
openbind_xx01zvns2b_c1_knitwork_impure

>  <inspiration_score>  (201) 
None

>  <name>  (201) 
P60884

>  <HIPPO Pose ID>  (201) 
60884

>  <ref_pdb>  (201) 
Z3515a

>  <inchikey>  (201) 
UBWGSOUPHZCWAQ-UHFFFAOYSA-N

>  <alias>  (201) 
None

>  <ref_mols>  (201) 
Z0089a,Z3515a

>  <subsites>  (201) 
1 - Z4590/B/203/1

>  <distance_score>  (201) 
0.96379

>  <HIPPO Compound ID>  (201) 
108402

>  <smiles>  (201) 
N#CCCCNc1ccnc2ccsc12

>  <energy_score>  (201) 
-24.859842

$$$$
P60885
     RDKit          3D

 13 14  0  0  0  0  0  0  0  0999 V2000
   -1.7428    4.8597  -18.8929 C   0  0  0  0  0  0  0  0  0  0  0  0
   -2.8710    5.1045  -19.2168 C   0  0  0  0  0  0  0  0  0  0  0  0
   -4.2618    5.3708  -19.5899 C   0  0  0  0  0  0  0  0  0  0  0  0
   -5.0198    5.6548  -18.3954 N   0  0  0  0  0  0  0  0  0  0  0  0
   -6.2252    5.0306  -18.1225 C   0  0  0  0  0  0  0  0  0  0  0  0
   -7.0792    4.5347  -19.1078 C   0  0  0  0  0  0  0  0  0  0  0  0
   -8.2992    3.9806  -18.7654 C   0  0  0  0  0  0  0  0  0  0  0  0
   -8.7666    3.8594  -17.5135 N   0  0  0  0  0  0  0  0  0  0  0  0
   -7.9581    4.3606  -16.5442 C   0  0  0  0  0  0  0  0  0  0  0  0
   -8.2855    4.4006  -15.1634 C   0  0  0  0  0  0  0  0  0  0  0  0
   -7.2843    4.9393  -14.3914 C   0  0  0  0  0  0  0  0  0  0  0  0
   -5.9553    5.4392  -15.3362 S   0  0  0  0  0  0  0  0  0  0  0  0
   -6.7120    4.9268  -16.8043 C   0  0  0  0  0  0  0  0  0  0  0  0
  1  2  3  0
  2  3  1  0
  3  4  1  0
  4  5  1  0
  5  6  2  0
  6  7  1  0
  7  8  2  0
  8  9  1  0
  9 10  1  0
 10 11  2  0
 11 12  1  0
 12 13  1  0
 13  5  1  0
 13  9  2  0
M  END
>  <tags>  (202) 
openbind_xx01zvns2b_c1_knitwork_impure,fragmenstein_placed,openbind_xx01zvns2b_c1_scaffolds_chemok_bbok,BulkDock Fragalysis export,openbind_xx01zvns2b_c1_scaffolds

>  <placement_batch>  (202) 
openbind_xx01zvns2b_c1_knitwork_impure

>  <inspiration_score>  (202) 
None

>  <name>  (202) 
P60885

>  <HIPPO Pose ID>  (202) 
60885

>  <ref_pdb>  (202) 
Z3515a

>  <inchikey>  (202) 
ODAARTYSKDMQEJ-UHFFFAOYSA-N

>  <alias>  (202) 
None

>  <ref_mols>  (202) 
Z0089a,Z3515a

>  <subsites>  (202) 
1 - Z4590/B/203/1

>  <distance_score>  (202) 
0.866353

>  <HIPPO Compound ID>  (202) 
108403

>  <smiles>  (202) 
C#CCNc1ccnc2ccsc12

>  <energy_score>  (202) 
-21.946898

$$$$
P60886
     RDKit          3D

 15 16  0  0  0  0  0  0  0  0999 V2000
   -1.9093    4.8216  -19.1163 C   0  0  0  0  0  0  0  0  0  0  0  0
   -2.6306    6.0825  -18.6534 C   0  0  0  0  0  0  0  0  0  0  0  0
   -4.1564    6.1165  -18.9531 C   0  0  0  0  0  0  0  0  0  0  0  0
   -4.7372    7.3996  -18.3295 C   0  0  0  0  0  0  0  0  0  0  0  0
   -4.3730    6.1528  -20.4616 C   0  0  0  0  0  0  0  0  0  0  0  0
   -4.7156    4.9158  -18.3082 N   0  0  0  0  0  0  0  0  0  0  0  0
   -6.0898    4.7344  -18.1354 C   0  0  0  0  0  0  0  0  0  0  0  0
   -6.9455    4.4377  -19.1888 C   0  0  0  0  0  0  0  0  0  0  0  0
   -8.2718    4.1353  -18.9333 C   0  0  0  0  0  0  0  0  0  0  0  0
   -8.8396    4.0880  -17.7146 N   0  0  0  0  0  0  0  0  0  0  0  0
   -8.0167    4.4017  -16.6815 C   0  0  0  0  0  0  0  0  0  0  0  0
   -8.4012    4.4309  -15.3130 C   0  0  0  0  0  0  0  0  0  0  0  0
   -7.3746    4.7875  -14.4721 C   0  0  0  0  0  0  0  0  0  0  0  0
   -5.9386    5.1117  -15.3320 S   0  0  0  0  0  0  0  0  0  0  0  0
   -6.6757    4.7332  -16.8509 C   0  0  0  0  0  0  0  0  0  0  0  0
  1  2  1  0
  2  3  1  0
  3  4  1  0
  3  5  1  0
  3  6  1  0
  6  7  1  0
  7  8  2  0
  8  9  1  0
  9 10  2  0
 10 11  1  0
 11 12  1  0
 12 13  2  0
 13 14  1  0
 14 15  1  0
 15  7  1  0
 15 11  2  0
M  END
>  <tags>  (203) 
openbind_xx01zvns2b_c1_knitwork_impure,BulkDock Fragalysis export,fragmenstein_placed,openbind_xx01zvns2b_c1_scaffolds

>  <placement_batch>  (203) 
openbind_xx01zvns2b_c1_knitwork_impure

>  <inspiration_score>  (203) 
None

>  <name>  (203) 
P60886

>  <HIPPO Pose ID>  (203) 
60886

>  <ref_pdb>  (203) 
Z3515a

>  <inchikey>  (203) 
IQZWLVZDBKGWTP-UHFFFAOYSA-N

>  <alias>  (203) 
None

>  <ref_mols>  (203) 
Z0089a,Z3515a

>  <subsites>  (203) 
1 - Z4590/B/203/1

>  <distance_score>  (203) 
0.5846

>  <HIPPO Compound ID>  (203) 
108404

>  <smiles>  (203) 
CCC(C)(C)Nc1ccnc2ccsc12

>  <energy_score>  (203) 
-42.179266

$$$$
P60887
     RDKit          3D

 15 16  0  0  0  0  0  0  0  0999 V2000
    0.1606    6.2977  -17.3092 C   0  0  0  0  0  0  0  0  0  0  0  0
   -0.8959    6.4250  -17.8655 C   0  0  0  0  0  0  0  0  0  0  0  0
   -2.1891    6.5733  -18.5511 C   0  0  0  0  0  0  0  0  0  0  0  0
   -2.8461    5.2131  -18.7842 C   0  0  0  0  0  0  0  0  0  0  0  0
   -4.1501    5.3457  -19.5638 C   0  0  0  0  0  0  0  0  0  0  0  0
   -5.1778    5.9862  -18.7429 N   0  0  0  0  0  0  0  0  0  0  0  0
   -6.2231    5.1403  -18.3068 C   0  0  0  0  0  0  0  0  0  0  0  0
   -7.0435    4.4780  -19.2231 C   0  0  0  0  0  0  0  0  0  0  0  0
   -8.1777    3.8182  -18.7918 C   0  0  0  0  0  0  0  0  0  0  0  0
   -8.5756    3.7242  -17.5143 N   0  0  0  0  0  0  0  0  0  0  0  0
   -7.7706    4.3404  -16.6085 C   0  0  0  0  0  0  0  0  0  0  0  0
   -8.0304    4.3900  -15.2125 C   0  0  0  0  0  0  0  0  0  0  0  0
   -7.0522    5.0582  -14.5161 C   0  0  0  0  0  0  0  0  0  0  0  0
   -5.8389    5.6696  -15.5499 S   0  0  0  0  0  0  0  0  0  0  0  0
   -6.6067    5.0297  -16.9569 C   0  0  0  0  0  0  0  0  0  0  0  0
  1  2  3  0
  2  3  1  0
  3  4  1  0
  4  5  1  0
  5  6  1  0
  6  7  1  0
  7  8  2  0
  8  9  1  0
  9 10  2  0
 10 11  1  0
 11 12  1  0
 12 13  2  0
 13 14  1  0
 14 15  1  0
 15  7  1  0
 15 11  2  0
M  END
>  <tags>  (204) 
openbind_xx01zvns2b_c1_knitwork_impure,BulkDock Fragalysis export,fragmenstein_placed,openbind_xx01zvns2b_c1_scaffolds

>  <placement_batch>  (204) 
openbind_xx01zvns2b_c1_knitwork_impure

>  <inspiration_score>  (204) 
None

>  <name>  (204) 
P60887

>  <HIPPO Pose ID>  (204) 
60887

>  <ref_pdb>  (204) 
Z3515a

>  <inchikey>  (204) 
ZOFWRTBLLKQRNN-UHFFFAOYSA-N

>  <alias>  (204) 
None

>  <ref_mols>  (204) 
Z0089a,Z3515a

>  <subsites>  (204) 
1 - Z4590/B/203/1

>  <distance_score>  (204) 
0.870621

>  <HIPPO Compound ID>  (204) 
108405

>  <smiles>  (204) 
C#CCCCNc1ccnc2ccsc12

>  <energy_score>  (204) 
-26.997983

$$$$
P60888
     RDKit          3D

 16 17  0  0  0  0  0  0  0  0999 V2000
   -4.6486    6.5897  -20.5856 C   0  0  0  0  0  0  0  0  0  0  0  0
   -4.2833    5.3770  -19.7249 C   0  0  2  0  0  0  0  0  0  0  0  0
   -4.8982    5.5256  -18.4031 N   0  0  0  0  0  0  0  0  0  0  0  0
   -6.1448    4.9840  -18.1049 C   0  0  0  0  0  0  0  0  0  0  0  0
   -7.0619    4.5530  -19.0664 C   0  0  0  0  0  0  0  0  0  0  0  0
   -8.2990    4.0576  -18.6939 C   0  0  0  0  0  0  0  0  0  0  0  0
   -8.7336    3.9435  -17.4305 N   0  0  0  0  0  0  0  0  0  0  0  0
   -7.8685    4.3842  -16.4805 C   0  0  0  0  0  0  0  0  0  0  0  0
   -8.1440    4.4054  -15.0851 C   0  0  0  0  0  0  0  0  0  0  0  0
   -7.0970    4.8933  -14.3413 C   0  0  0  0  0  0  0  0  0  0  0  0
   -5.7848    5.3642  -15.3237 S   0  0  0  0  0  0  0  0  0  0  0  0
   -6.6025    4.8925  -16.7730 C   0  0  0  0  0  0  0  0  0  0  0  0
   -2.7562    5.1448  -19.6991 C   0  0  0  0  0  0  0  0  0  0  0  0
   -1.9181    6.3215  -19.2425 C   0  0  0  0  0  0  0  0  0  0  0  0
   -2.4641    4.0682  -18.9214 F   0  0  0  0  0  0  0  0  0  0  0  0
   -2.3777    4.7807  -20.9694 F   0  0  0  0  0  0  0  0  0  0  0  0
  2  1  1  6
  2  3  1  0
  3  4  1  0
  4  5  2  0
  5  6  1  0
  6  7  2  0
  7  8  1  0
  8  9  1  0
  9 10  2  0
 10 11  1  0
 11 12  1  0
  2 13  1  0
 13 14  1  0
 13 15  1  0
 13 16  1  0
 12  4  1  0
 12  8  2  0
M  END
>  <tags>  (205) 
openbind_xx01zvns2b_c1_knitwork_impure,fragmenstein_placed,openbind_xx01zvns2b_c1_scaffolds_chemok_bbok,BulkDock Fragalysis export,openbind_xx01zvns2b_c1_scaffolds

>  <placement_batch>  (205) 
openbind_xx01zvns2b_c1_knitwork_impure

>  <inspiration_score>  (205) 
None

>  <name>  (205) 
P60888

>  <HIPPO Pose ID>  (205) 
60888

>  <ref_pdb>  (205) 
Z3515a

>  <inchikey>  (205) 
FUHXPNDCMONPKK-UHFFFAOYSA-N

>  <alias>  (205) 
None

>  <ref_mols>  (205) 
Z0089a,Z3515a

>  <subsites>  (205) 
1 - Z4590/B/203/1

>  <distance_score>  (205) 
0.589781

>  <HIPPO Compound ID>  (205) 
108406

>  <smiles>  (205) 
C[C@H](Nc1ccnc2ccsc12)C(C)(F)F

>  <energy_score>  (205) 
-36.475923

$$$$
P60889
     RDKit          3D

 15 16  0  0  0  0  0  0  0  0999 V2000
   -1.7179    4.0673  -18.7462 C   0  0  0  0  0  0  0  0  0  0  0  0
   -2.8835    4.6321  -18.4432 C   0  0  0  0  0  0  0  0  0  0  0  0
   -3.0843    6.1035  -18.3284 C   0  0  0  0  0  0  0  0  0  0  0  0
   -4.1664    6.6443  -19.2685 C   0  0  1  0  0  0  0  0  0  0  0  0
   -4.0826    6.1250  -20.6912 C   0  0  0  0  0  0  0  0  0  0  0  0
   -5.5259    6.6131  -18.7113 N   0  0  0  0  0  0  0  0  0  0  0  0
   -6.2276    5.4684  -18.3318 C   0  0  0  0  0  0  0  0  0  0  0  0
   -6.8446    4.6557  -19.2794 C   0  0  0  0  0  0  0  0  0  0  0  0
   -7.8541    3.7921  -18.8972 C   0  0  0  0  0  0  0  0  0  0  0  0
   -8.2870    3.6140  -17.6388 N   0  0  0  0  0  0  0  0  0  0  0  0
   -7.6132    4.3189  -16.6918 C   0  0  0  0  0  0  0  0  0  0  0  0
   -7.8955    4.2710  -15.2979 C   0  0  0  0  0  0  0  0  0  0  0  0
   -7.0574    5.0658  -14.5553 C   0  0  0  0  0  0  0  0  0  0  0  0
   -5.9590    5.9185  -15.5410 S   0  0  0  0  0  0  0  0  0  0  0  0
   -6.5855    5.2163  -16.9900 C   0  0  0  0  0  0  0  0  0  0  0  0
  1  2  2  0
  2  3  1  0
  3  4  1  0
  4  5  1  6
  4  6  1  0
  6  7  1  0
  7  8  2  0
  8  9  1  0
  9 10  2  0
 10 11  1  0
 11 12  1  0
 12 13  2  0
 13 14  1  0
 14 15  1  0
 15  7  1  0
 15 11  2  0
M  END
>  <tags>  (206) 
openbind_xx01zvns2b_c1_knitwork_impure,fragmenstein_placed,openbind_xx01zvns2b_c1_scaffolds_chemok_bbok,BulkDock Fragalysis export,openbind_xx01zvns2b_c1_scaffolds

>  <placement_batch>  (206) 
openbind_xx01zvns2b_c1_knitwork_impure

>  <inspiration_score>  (206) 
None

>  <name>  (206) 
P60889

>  <HIPPO Pose ID>  (206) 
60889

>  <ref_pdb>  (206) 
Z3515a

>  <inchikey>  (206) 
OWJFXNZGGDZFSS-UHFFFAOYSA-N

>  <alias>  (206) 
None

>  <ref_mols>  (206) 
Z0089a,Z3515a

>  <subsites>  (206) 
1 - Z4590/B/203/1

>  <distance_score>  (206) 
0.909449

>  <HIPPO Compound ID>  (206) 
108408

>  <smiles>  (206) 
C=CC[C@@H](C)Nc1ccnc2ccsc12

>  <energy_score>  (206) 
-20.907289

$$$$
P60891
     RDKit          3D

 15 16  0  0  0  0  0  0  0  0999 V2000
   -4.1023    6.3808  -20.8001 C   0  0  0  0  0  0  0  0  0  0  0  0
   -4.3149    5.4309  -19.6160 C   0  0  2  0  0  0  0  0  0  0  0  0
   -5.3086    6.0217  -18.6931 N   0  0  0  0  0  0  0  0  0  0  0  0
   -6.3231    5.1469  -18.2476 C   0  0  0  0  0  0  0  0  0  0  0  0
   -7.1596    4.4789  -19.1433 C   0  0  0  0  0  0  0  0  0  0  0  0
   -8.2693    3.7999  -18.6799 C   0  0  0  0  0  0  0  0  0  0  0  0
   -8.6271    3.6958  -17.3909 N   0  0  0  0  0  0  0  0  0  0  0  0
   -7.8022    4.3158  -16.5052 C   0  0  0  0  0  0  0  0  0  0  0  0
   -8.0060    4.3539  -15.0975 C   0  0  0  0  0  0  0  0  0  0  0  0
   -7.0132    5.0322  -14.4326 C   0  0  0  0  0  0  0  0  0  0  0  0
   -5.8502    5.6678  -15.5059 S   0  0  0  0  0  0  0  0  0  0  0  0
   -6.6604    5.0229  -16.8867 C   0  0  0  0  0  0  0  0  0  0  0  0
   -2.9755    5.1491  -18.9222 C   0  0  0  0  0  0  0  0  0  0  0  0
   -2.2543    6.2936  -18.7884 F   0  0  0  0  0  0  0  0  0  0  0  0
   -2.2485    4.3192  -19.7229 F   0  0  0  0  0  0  0  0  0  0  0  0
  2  1  1  6
  2  3  1  0
  3  4  1  0
  4  5  2  0
  5  6  1  0
  6  7  2  0
  7  8  1  0
  8  9  1  0
  9 10  2  0
 10 11  1  0
 11 12  1  0
  2 13  1  0
 13 14  1  0
 13 15  1  0
 12  4  1  0
 12  8  2  0
M  END
>  <tags>  (207) 
openbind_xx01zvns2b_c1_knitwork_impure,fragmenstein_placed,openbind_xx01zvns2b_c1_scaffolds_chemok_bbok,BulkDock Fragalysis export,openbind_xx01zvns2b_c1_scaffolds

>  <placement_batch>  (207) 
openbind_xx01zvns2b_c1_knitwork_impure

>  <inspiration_score>  (207) 
None

>  <name>  (207) 
P60891

>  <HIPPO Pose ID>  (207) 
60891

>  <ref_pdb>  (207) 
Z3515a

>  <inchikey>  (207) 
AUXIMAVBHFYSOM-UHFFFAOYSA-N

>  <alias>  (207) 
None

>  <ref_mols>  (207) 
Z0089a,Z3515a

>  <subsites>  (207) 
1 - Z4590/B/203/1

>  <distance_score>  (207) 
0.615313

>  <HIPPO Compound ID>  (207) 
108410

>  <smiles>  (207) 
C[C@H](Nc1ccnc2ccsc12)C(F)F

>  <energy_score>  (207) 
-24.873526

$$$$
P60892
     RDKit          3D

 15 16  0  0  0  0  0  0  0  0999 V2000
   -1.9886    7.1090  -19.3363 C   0  0  0  0  0  0  0  0  0  0  0  0
   -2.7473    5.8216  -19.0580 C   0  0  2  0  0  0  0  0  0  0  0  0
   -2.4030    4.6364  -20.3528 Cl  0  0  0  0  0  0  0  0  0  0  0  0
   -4.2752    6.0310  -18.8707 C   0  0  1  0  0  0  0  0  0  0  0  0
   -4.9745    6.6108  -20.0990 C   0  0  0  0  0  0  0  0  0  0  0  0
   -4.8283    4.7451  -18.4086 N   0  0  0  0  0  0  0  0  0  0  0  0
   -6.1992    4.6565  -18.1369 C   0  0  0  0  0  0  0  0  0  0  0  0
   -7.1066    4.3657  -19.1495 C   0  0  0  0  0  0  0  0  0  0  0  0
   -8.4264    4.1163  -18.8294 C   0  0  0  0  0  0  0  0  0  0  0  0
   -8.9344    4.1103  -17.5834 N   0  0  0  0  0  0  0  0  0  0  0  0
   -8.0580    4.4243  -16.5941 C   0  0  0  0  0  0  0  0  0  0  0  0
   -8.3745    4.4862  -15.2090 C   0  0  0  0  0  0  0  0  0  0  0  0
   -7.3007    4.8396  -14.4268 C   0  0  0  0  0  0  0  0  0  0  0  0
   -5.9016    5.1181  -15.3617 S   0  0  0  0  0  0  0  0  0  0  0  0
   -6.7177    4.7167  -16.8300 C   0  0  0  0  0  0  0  0  0  0  0  0
  2  1  1  6
  2  3  1  0
  2  4  1  0
  4  5  1  6
  4  6  1  0
  6  7  1  0
  7  8  2  0
  8  9  1  0
  9 10  2  0
 10 11  1  0
 11 12  1  0
 12 13  2  0
 13 14  1  0
 14 15  1  0
 15  7  1  0
 15 11  2  0
M  END
>  <tags>  (208) 
openbind_xx01zvns2b_c1_knitwork_impure,fragmenstein_placed,openbind_xx01zvns2b_c1_scaffolds_chemok_bbok,BulkDock Fragalysis export,openbind_xx01zvns2b_c1_scaffolds

>  <placement_batch>  (208) 
openbind_xx01zvns2b_c1_knitwork_impure

>  <inspiration_score>  (208) 
None

>  <name>  (208) 
P60892

>  <HIPPO Pose ID>  (208) 
60892

>  <ref_pdb>  (208) 
Z3515a

>  <inchikey>  (208) 
PSBCYUPUWAAIQM-UHFFFAOYSA-N

>  <alias>  (208) 
None

>  <ref_mols>  (208) 
Z0089a,Z3515a

>  <subsites>  (208) 
1 - Z4590/B/203/1

>  <distance_score>  (208) 
0.647858

>  <HIPPO Compound ID>  (208) 
108411

>  <smiles>  (208) 
C[C@H](Cl)[C@@H](C)Nc1ccnc2ccsc12

>  <energy_score>  (208) 
-35.83665

$$$$
P60893
     RDKit          3D

 16 17  0  0  0  0  0  0  0  0999 V2000
   -0.2898    6.7318  -17.6257 C   0  0  0  0  0  0  0  0  0  0  0  0
   -0.8479    6.5125  -19.3330 S   0  0  0  0  0  0  0  0  0  0  0  0
   -1.8611    4.9991  -19.1164 C   0  0  0  0  0  0  0  0  0  0  0  0
   -3.2287    5.3185  -18.5240 C   0  0  0  0  0  0  0  0  0  0  0  0
   -4.3556    5.5103  -19.5556 C   0  0  2  0  0  0  0  0  0  0  0  0
   -3.9999    6.4824  -20.6872 C   0  0  0  0  0  0  0  0  0  0  0  0
   -5.5292    6.0585  -18.8585 N   0  0  0  0  0  0  0  0  0  0  0  0
   -6.4428    5.1254  -18.3279 C   0  0  0  0  0  0  0  0  0  0  0  0
   -7.2372    4.3513  -19.1726 C   0  0  0  0  0  0  0  0  0  0  0  0
   -8.2988    3.6414  -18.6510 C   0  0  0  0  0  0  0  0  0  0  0  0
   -8.6299    3.5839  -17.3510 N   0  0  0  0  0  0  0  0  0  0  0  0
   -7.8130    4.2757  -16.5120 C   0  0  0  0  0  0  0  0  0  0  0  0
   -7.9764    4.3486  -15.1000 C   0  0  0  0  0  0  0  0  0  0  0  0
   -7.0018    5.0990  -14.4883 C   0  0  0  0  0  0  0  0  0  0  0  0
   -5.9075    5.7594  -15.6174 S   0  0  0  0  0  0  0  0  0  0  0  0
   -6.7227    5.0290  -16.9519 C   0  0  0  0  0  0  0  0  0  0  0  0
  1  2  1  0
  2  3  1  0
  3  4  1  0
  4  5  1  0
  5  6  1  6
  5  7  1  0
  7  8  1  0
  8  9  2  0
  9 10  1  0
 10 11  2  0
 11 12  1  0
 12 13  1  0
 13 14  2  0
 14 15  1  0
 15 16  1  0
 16  8  1  0
 16 12  2  0
M  END
>  <tags>  (209) 
openbind_xx01zvns2b_c1_knitwork_impure,fragmenstein_placed,openbind_xx01zvns2b_c1_scaffolds_chemok_bbok,BulkDock Fragalysis export,openbind_xx01zvns2b_c1_scaffolds

>  <placement_batch>  (209) 
openbind_xx01zvns2b_c1_knitwork_impure

>  <inspiration_score>  (209) 
None

>  <name>  (209) 
P60893

>  <HIPPO Pose ID>  (209) 
60893

>  <ref_pdb>  (209) 
Z3515a

>  <inchikey>  (209) 
DNMBKGGLEQMUII-UHFFFAOYSA-N

>  <alias>  (209) 
None

>  <ref_mols>  (209) 
Z0089a,Z3515a

>  <subsites>  (209) 
1 - Z4590/B/203/1

>  <distance_score>  (209) 
0.810186

>  <HIPPO Compound ID>  (209) 
108412

>  <smiles>  (209) 
CSCC[C@H](C)Nc1ccnc2ccsc12

>  <energy_score>  (209) 
-35.577353

$$$$
P60894
     RDKit          3D

 14 15  0  0  0  0  0  0  0  0999 V2000
   -1.9122    7.5231  -20.3570 Cl  0  0  0  0  0  0  0  0  0  0  0  0
   -2.1592    6.6261  -18.8356 C   0  0  0  0  0  0  0  0  0  0  0  0
   -2.7955    5.2637  -19.0752 C   0  0  0  0  0  0  0  0  0  0  0  0
   -4.2114    5.3358  -19.6403 C   0  0  0  0  0  0  0  0  0  0  0  0
   -5.1173    5.9246  -18.6541 N   0  0  0  0  0  0  0  0  0  0  0  0
   -6.2081    5.1197  -18.2610 C   0  0  0  0  0  0  0  0  0  0  0  0
   -7.0580    4.5192  -19.1909 C   0  0  0  0  0  0  0  0  0  0  0  0
   -8.2121    3.8853  -18.7713 C   0  0  0  0  0  0  0  0  0  0  0  0
   -8.6095    3.7709  -17.4945 N   0  0  0  0  0  0  0  0  0  0  0  0
   -7.7843    4.3409  -16.5763 C   0  0  0  0  0  0  0  0  0  0  0  0
   -8.0307    4.3671  -15.1750 C   0  0  0  0  0  0  0  0  0  0  0  0
   -7.0327    4.9953  -14.4701 C   0  0  0  0  0  0  0  0  0  0  0  0
   -5.8111    5.5971  -15.4978 S   0  0  0  0  0  0  0  0  0  0  0  0
   -6.6004    5.0004  -16.9132 C   0  0  0  0  0  0  0  0  0  0  0  0
  1  2  1  0
  2  3  1  0
  3  4  1  0
  4  5  1  0
  5  6  1  0
  6  7  2  0
  7  8  1  0
  8  9  2  0
  9 10  1  0
 10 11  1  0
 11 12  2  0
 12 13  1  0
 13 14  1  0
 14  6  1  0
 14 10  2  0
M  END
>  <tags>  (210) 
openbind_xx01zvns2b_c1_knitwork_impure,BulkDock Fragalysis export,fragmenstein_placed,openbind_xx01zvns2b_c1_scaffolds

>  <placement_batch>  (210) 
openbind_xx01zvns2b_c1_knitwork_impure

>  <inspiration_score>  (210) 
None

>  <name>  (210) 
P60894

>  <HIPPO Pose ID>  (210) 
60894

>  <ref_pdb>  (210) 
Z3515a

>  <inchikey>  (210) 
AULDUHQKJWJWFW-UHFFFAOYSA-N

>  <alias>  (210) 
None

>  <ref_mols>  (210) 
Z0089a,Z3515a

>  <subsites>  (210) 
1 - Z4590/B/203/1

>  <distance_score>  (210) 
0.554154

>  <HIPPO Compound ID>  (210) 
108413

>  <smiles>  (210) 
ClCCCNc1ccnc2ccsc12

>  <energy_score>  (210) 
-14.624269

$$$$
P60895
     RDKit          3D

 15 16  0  0  0  0  0  0  0  0999 V2000
   -1.9558    7.5861  -18.5126 C   0  0  0  0  0  0  0  0  0  0  0  0
   -2.4961    6.3630  -18.4474 C   0  0  0  0  0  0  0  0  0  0  0  0
   -3.7512    5.8568  -19.1389 C   0  0  0  0  0  0  0  0  0  0  0  0
   -4.4911    6.9412  -19.9349 C   0  0  0  0  0  0  0  0  0  0  0  0
   -3.2281    4.7551  -20.0430 C   0  0  0  0  0  0  0  0  0  0  0  0
   -4.5692    5.3250  -18.0566 N   0  0  0  0  0  0  0  0  0  0  0  0
   -5.8837    4.9161  -18.0375 C   0  0  0  0  0  0  0  0  0  0  0  0
   -6.6285    4.5082  -19.1410 C   0  0  0  0  0  0  0  0  0  0  0  0
   -7.9388    4.0772  -18.9902 C   0  0  0  0  0  0  0  0  0  0  0  0
   -8.5970    3.9872  -17.8240 N   0  0  0  0  0  0  0  0  0  0  0  0
   -7.8920    4.3884  -16.7374 C   0  0  0  0  0  0  0  0  0  0  0  0
   -8.3996    4.3987  -15.4117 C   0  0  0  0  0  0  0  0  0  0  0  0
   -7.4813    4.8440  -14.4919 C   0  0  0  0  0  0  0  0  0  0  0  0
   -6.0072    5.2816  -15.2301 S   0  0  0  0  0  0  0  0  0  0  0  0
   -6.5792    4.8463  -16.8069 C   0  0  0  0  0  0  0  0  0  0  0  0
  1  2  2  0
  2  3  1  0
  3  4  1  0
  3  5  1  0
  3  6  1  0
  6  7  1  0
  7  8  2  0
  8  9  1  0
  9 10  2  0
 10 11  1  0
 11 12  1  0
 12 13  2  0
 13 14  1  0
 14 15  1  0
 15  7  1  0
 15 11  2  0
M  END
>  <tags>  (211) 
openbind_xx01zvns2b_c1_knitwork_impure,BulkDock Fragalysis export,fragmenstein_placed,openbind_xx01zvns2b_c1_scaffolds

>  <placement_batch>  (211) 
openbind_xx01zvns2b_c1_knitwork_impure

>  <inspiration_score>  (211) 
None

>  <name>  (211) 
P60895

>  <HIPPO Pose ID>  (211) 
60895

>  <ref_pdb>  (211) 
Z3515a

>  <inchikey>  (211) 
MFCSZHFHYGGNEA-UHFFFAOYSA-N

>  <alias>  (211) 
None

>  <ref_mols>  (211) 
Z0089a,Z3515a

>  <subsites>  (211) 
1 - Z4590/B/203/1

>  <distance_score>  (211) 
0.994994

>  <HIPPO Compound ID>  (211) 
108414

>  <smiles>  (211) 
C=CC(C)(C)Nc1ccnc2ccsc12

>  <energy_score>  (211) 
-47.0216

$$$$
P60896
     RDKit          3D

 16 17  0  0  0  0  0  0  0  0999 V2000
   -2.3044    6.2558  -17.2602 C   0  0  0  0  0  0  0  0  0  0  0  0
   -3.1371    5.4101  -18.2139 C   0  0  2  0  0  0  0  0  0  0  0  0
   -2.0141    4.3132  -19.0738 Cl  0  0  0  0  0  0  0  0  0  0  0  0
   -4.0551    6.2465  -19.1651 C   0  0  0  0  0  0  0  0  0  0  0  0
   -3.4763    7.6599  -19.4415 C   0  0  0  0  0  0  0  0  0  0  0  0
   -4.2273    5.6131  -20.5339 C   0  0  0  0  0  0  0  0  0  0  0  0
   -5.3914    6.4812  -18.5503 N   0  0  0  0  0  0  0  0  0  0  0  0
   -6.2543    5.4377  -18.1778 C   0  0  0  0  0  0  0  0  0  0  0  0
   -6.9688    4.6955  -19.1195 C   0  0  0  0  0  0  0  0  0  0  0  0
   -8.0116    3.8779  -18.7239 C   0  0  0  0  0  0  0  0  0  0  0  0
   -8.4074    3.6950  -17.4557 N   0  0  0  0  0  0  0  0  0  0  0  0
   -7.6785    4.3590  -16.5201 C   0  0  0  0  0  0  0  0  0  0  0  0
   -7.9301    4.3153  -15.1207 C   0  0  0  0  0  0  0  0  0  0  0  0
   -7.0369    5.0620  -14.3924 C   0  0  0  0  0  0  0  0  0  0  0  0
   -5.9168    5.8632  -15.3961 S   0  0  0  0  0  0  0  0  0  0  0  0
   -6.6100    5.2019  -16.8338 C   0  0  0  0  0  0  0  0  0  0  0  0
  2  1  1  6
  2  3  1  0
  2  4  1  0
  4  5  1  0
  4  6  1  0
  4  7  1  0
  7  8  1  0
  8  9  2  0
  9 10  1  0
 10 11  2  0
 11 12  1  0
 12 13  1  0
 13 14  2  0
 14 15  1  0
 15 16  1  0
 16  8  1  0
 16 12  2  0
M  END
>  <tags>  (212) 
openbind_xx01zvns2b_c1_knitwork_impure,fragmenstein_placed,openbind_xx01zvns2b_c1_scaffolds_chemok_bbok,BulkDock Fragalysis export,openbind_xx01zvns2b_c1_scaffolds

>  <placement_batch>  (212) 
openbind_xx01zvns2b_c1_knitwork_impure

>  <inspiration_score>  (212) 
None

>  <name>  (212) 
P60896

>  <HIPPO Pose ID>  (212) 
60896

>  <ref_pdb>  (212) 
Z3515a

>  <inchikey>  (212) 
UGFIGTZTUJNRDR-UHFFFAOYSA-N

>  <alias>  (212) 
None

>  <ref_mols>  (212) 
Z0089a,Z3515a

>  <subsites>  (212) 
1 - Z4590/B/203/1

>  <distance_score>  (212) 
0.897731

>  <HIPPO Compound ID>  (212) 
108415

>  <smiles>  (212) 
C[C@H](Cl)C(C)(C)Nc1ccnc2ccsc12

>  <energy_score>  (212) 
-32.306371

$$$$
P60897
     RDKit          3D

 14 15  0  0  0  0  0  0  0  0999 V2000
   -1.8389    3.3662  -19.0200 N   0  0  0  0  0  0  0  0  0  0  0  0
   -2.3799    4.3747  -18.8500 C   0  0  0  0  0  0  0  0  0  0  0  0
   -3.2114    5.5483  -18.6251 C   0  0  0  0  0  0  0  0  0  0  0  0
   -4.4313    5.4646  -19.5383 C   0  0  0  0  0  0  0  0  0  0  0  0
   -5.5879    6.1159  -18.9192 N   0  0  0  0  0  0  0  0  0  0  0  0
   -6.5092    5.2015  -18.3411 C   0  0  0  0  0  0  0  0  0  0  0  0
   -7.3007    4.3930  -19.1607 C   0  0  0  0  0  0  0  0  0  0  0  0
   -8.3306    3.6568  -18.6145 C   0  0  0  0  0  0  0  0  0  0  0  0
   -8.6281    3.5994  -17.3085 N   0  0  0  0  0  0  0  0  0  0  0  0
   -7.8095    4.3130  -16.4909 C   0  0  0  0  0  0  0  0  0  0  0  0
   -7.9363    4.3707  -15.0746 C   0  0  0  0  0  0  0  0  0  0  0  0
   -6.9660    5.1436  -14.4851 C   0  0  0  0  0  0  0  0  0  0  0  0
   -5.9206    5.8387  -15.6392 S   0  0  0  0  0  0  0  0  0  0  0  0
   -6.7511    5.0976  -16.9577 C   0  0  0  0  0  0  0  0  0  0  0  0
  1  2  3  0
  2  3  1  0
  3  4  1  0
  4  5  1  0
  5  6  1  0
  6  7  2  0
  7  8  1  0
  8  9  2  0
  9 10  1  0
 10 11  1  0
 11 12  2  0
 12 13  1  0
 13 14  1  0
 14  6  1  0
 14 10  2  0
M  END
>  <tags>  (213) 
openbind_xx01zvns2b_c1_knitwork_impure,fragmenstein_placed,openbind_xx01zvns2b_c1_scaffolds_chemok_bbok,BulkDock Fragalysis export,openbind_xx01zvns2b_c1_scaffolds

>  <placement_batch>  (213) 
openbind_xx01zvns2b_c1_knitwork_impure

>  <inspiration_score>  (213) 
None

>  <name>  (213) 
P60897

>  <HIPPO Pose ID>  (213) 
60897

>  <ref_pdb>  (213) 
Z3515a

>  <inchikey>  (213) 
JYDITVTUGASXHF-UHFFFAOYSA-N

>  <alias>  (213) 
None

>  <ref_mols>  (213) 
Z0089a,Z3515a

>  <subsites>  (213) 
1 - Z4590/B/203/1

>  <distance_score>  (213) 
0.744212

>  <HIPPO Compound ID>  (213) 
108416

>  <smiles>  (213) 
N#CCCNc1ccnc2ccsc12

>  <energy_score>  (213) 
-16.758757

$$$$
P60899
     RDKit          3D

 16 17  0  0  0  0  0  0  0  0999 V2000
   -3.1146    8.0496  -17.7811 C   0  0  0  0  0  0  0  0  0  0  0  0
   -2.6084    7.6516  -19.1595 C   0  0  0  0  0  0  0  0  0  0  0  0
   -2.7868    6.1774  -19.5628 C   0  0  0  0  0  0  0  0  0  0  0  0
   -1.8335    5.2692  -18.7715 C   0  0  0  0  0  0  0  0  0  0  0  0
   -2.0183    3.8186  -19.1229 C   0  0  0  0  0  0  0  0  0  0  0  0
   -4.2604    5.7226  -19.6189 C   0  0  0  0  0  0  0  0  0  0  0  0
   -4.7847    5.3679  -18.3213 N   0  0  0  0  0  0  0  0  0  0  0  0
   -6.0776    4.9261  -18.1156 C   0  0  0  0  0  0  0  0  0  0  0  0
   -6.9220    4.4837  -19.1327 C   0  0  0  0  0  0  0  0  0  0  0  0
   -8.1985    4.0370  -18.8366 C   0  0  0  0  0  0  0  0  0  0  0  0
   -8.7285    3.9644  -17.6043 N   0  0  0  0  0  0  0  0  0  0  0  0
   -7.9177    4.3938  -16.6028 C   0  0  0  0  0  0  0  0  0  0  0  0
   -8.2779    4.4270  -15.2271 C   0  0  0  0  0  0  0  0  0  0  0  0
   -7.2705    4.8989  -14.4205 C   0  0  0  0  0  0  0  0  0  0  0  0
   -5.8916    5.3409  -15.3217 S   0  0  0  0  0  0  0  0  0  0  0  0
   -6.6251    4.8698  -16.8162 C   0  0  0  0  0  0  0  0  0  0  0  0
  1  2  1  0
  2  3  1  0
  3  4  1  0
  4  5  1  0
  3  6  1  0
  6  7  1  0
  7  8  1  0
  8  9  2  0
  9 10  1  0
 10 11  2  0
 11 12  1  0
 12 13  1  0
 13 14  2  0
 14 15  1  0
 15 16  1  0
 16  8  1  0
 16 12  2  0
M  END
>  <tags>  (214) 
openbind_xx01zvns2b_c1_knitwork_impure,BulkDock Fragalysis export,fragmenstein_placed,openbind_xx01zvns2b_c1_scaffolds

>  <placement_batch>  (214) 
openbind_xx01zvns2b_c1_knitwork_impure

>  <inspiration_score>  (214) 
None

>  <name>  (214) 
P60899

>  <HIPPO Pose ID>  (214) 
60899

>  <ref_pdb>  (214) 
Z3515a

>  <inchikey>  (214) 
BQNFQWSTRMPJMS-UHFFFAOYSA-N

>  <alias>  (214) 
None

>  <ref_mols>  (214) 
Z0089a,Z3515a

>  <subsites>  (214) 
1 - Z4590/B/203/1

>  <distance_score>  (214) 
0.675715

>  <HIPPO Compound ID>  (214) 
108418

>  <smiles>  (214) 
CCC(CC)CNc1ccnc2ccsc12

>  <energy_score>  (214) 
-44.374088

$$$$
P60900
     RDKit          3D

 14 15  0  0  0  0  0  0  0  0999 V2000
   -1.9879    6.6073  -18.7907 C   0  0  0  0  0  0  0  0  0  0  0  0
   -2.6436    5.3281  -19.2934 C   0  0  0  0  0  0  0  0  0  0  0  0
   -4.1433    5.4479  -19.6179 C   0  0  2  0  0  0  0  0  0  0  0  0
   -4.4525    6.6111  -20.5585 C   0  0  0  0  0  0  0  0  0  0  0  0
   -4.8993    5.5964  -18.3870 N   0  0  0  0  0  0  0  0  0  0  0  0
   -6.1285    5.0083  -18.1492 C   0  0  0  0  0  0  0  0  0  0  0  0
   -6.9719    4.5245  -19.1473 C   0  0  0  0  0  0  0  0  0  0  0  0
   -8.2124    4.0012  -18.8251 C   0  0  0  0  0  0  0  0  0  0  0  0
   -8.7082    3.8908  -17.5818 N   0  0  0  0  0  0  0  0  0  0  0  0
   -7.9028    4.3677  -16.5974 C   0  0  0  0  0  0  0  0  0  0  0  0
   -8.2408    4.3949  -15.2160 C   0  0  0  0  0  0  0  0  0  0  0  0
   -7.2418    4.9157  -14.4295 C   0  0  0  0  0  0  0  0  0  0  0  0
   -5.9016    5.4164  -15.3573 S   0  0  0  0  0  0  0  0  0  0  0  0
   -6.6429    4.9138  -16.8378 C   0  0  0  0  0  0  0  0  0  0  0  0
  1  2  1  0
  2  3  1  0
  3  4  1  6
  3  5  1  0
  5  6  1  0
  6  7  2  0
  7  8  1  0
  8  9  2  0
  9 10  1  0
 10 11  1  0
 11 12  2  0
 12 13  1  0
 13 14  1  0
 14  6  1  0
 14 10  2  0
M  END
>  <tags>  (215) 
openbind_xx01zvns2b_c1_knitwork_impure,fragmenstein_placed,openbind_xx01zvns2b_c1_scaffolds_chemok_bbok,BulkDock Fragalysis export,openbind_xx01zvns2b_c1_scaffolds

>  <placement_batch>  (215) 
openbind_xx01zvns2b_c1_knitwork_impure

>  <inspiration_score>  (215) 
None

>  <name>  (215) 
P60900

>  <HIPPO Pose ID>  (215) 
60900

>  <ref_pdb>  (215) 
Z3515a

>  <inchikey>  (215) 
BFLWUGVSONQCHP-UHFFFAOYSA-N

>  <alias>  (215) 
None

>  <ref_mols>  (215) 
Z0089a,Z3515a

>  <subsites>  (215) 
1 - Z4590/B/203/1

>  <distance_score>  (215) 
0.556371

>  <HIPPO Compound ID>  (215) 
108419

>  <smiles>  (215) 
CC[C@H](C)Nc1ccnc2ccsc12

>  <energy_score>  (215) 
-34.497443

$$$$
P60901
     RDKit          3D

 14 15  0  0  0  0  0  0  0  0999 V2000
   -2.2716    4.2707  -19.6757 F   0  0  0  0  0  0  0  0  0  0  0  0
   -2.9890    5.1721  -18.9473 C   0  0  0  0  0  0  0  0  0  0  0  0
   -2.3037    6.3457  -19.0038 F   0  0  0  0  0  0  0  0  0  0  0  0
   -4.3498    5.3381  -19.6144 C   0  0  0  0  0  0  0  0  0  0  0  0
   -5.3431    5.9884  -18.7436 N   0  0  0  0  0  0  0  0  0  0  0  0
   -6.3632    5.1353  -18.2674 C   0  0  0  0  0  0  0  0  0  0  0  0
   -7.2074    4.4507  -19.1433 C   0  0  0  0  0  0  0  0  0  0  0  0
   -8.3090    3.7760  -18.6567 C   0  0  0  0  0  0  0  0  0  0  0  0
   -8.6488    3.6870  -17.3620 N   0  0  0  0  0  0  0  0  0  0  0  0
   -7.8119    4.3168  -16.4947 C   0  0  0  0  0  0  0  0  0  0  0  0
   -7.9924    4.3629  -15.0841 C   0  0  0  0  0  0  0  0  0  0  0  0
   -6.9905    5.0483  -14.4406 C   0  0  0  0  0  0  0  0  0  0  0  0
   -5.8463    5.6787  -15.5373 S   0  0  0  0  0  0  0  0  0  0  0  0
   -6.6778    5.0235  -16.9002 C   0  0  0  0  0  0  0  0  0  0  0  0
  1  2  1  0
  2  3  1  0
  2  4  1  0
  4  5  1  0
  5  6  1  0
  6  7  2  0
  7  8  1  0
  8  9  2  0
  9 10  1  0
 10 11  1  0
 11 12  2  0
 12 13  1  0
 13 14  1  0
 14  6  1  0
 14 10  2  0
M  END
>  <tags>  (216) 
openbind_xx01zvns2b_c1_knitwork_impure,fragmenstein_placed,openbind_xx01zvns2b_c1_scaffolds_chemok_bbok,BulkDock Fragalysis export,openbind_xx01zvns2b_c1_scaffolds

>  <placement_batch>  (216) 
openbind_xx01zvns2b_c1_knitwork_impure

>  <inspiration_score>  (216) 
None

>  <name>  (216) 
P60901

>  <HIPPO Pose ID>  (216) 
60901

>  <ref_pdb>  (216) 
Z3515a

>  <inchikey>  (216) 
JTTZIMINDQCMJQ-UHFFFAOYSA-N

>  <alias>  (216) 
None

>  <ref_mols>  (216) 
Z0089a,Z3515a

>  <subsites>  (216) 
1 - Z4590/B/203/1

>  <distance_score>  (216) 
0.620588

>  <HIPPO Compound ID>  (216) 
108420

>  <smiles>  (216) 
FC(F)CNc1ccnc2ccsc12

>  <energy_score>  (216) 
-18.165905

$$$$
P60902
     RDKit          3D

 15 16  0  0  0  0  0  0  0  0999 V2000
   -1.8523    3.5749  -18.8653 C   0  0  0  0  0  0  0  0  0  0  0  0
   -2.4056    4.5937  -18.5726 C   0  0  0  0  0  0  0  0  0  0  0  0
   -3.0257    5.8540  -18.1716 C   0  0  0  0  0  0  0  0  0  0  0  0
   -4.0396    6.4122  -19.1761 C   0  0  1  0  0  0  0  0  0  0  0  0
   -3.9679    5.8497  -20.5810 C   0  0  0  0  0  0  0  0  0  0  0  0
   -5.4145    6.4966  -18.6585 N   0  0  0  0  0  0  0  0  0  0  0  0
   -6.1912    5.3954  -18.2908 C   0  0  0  0  0  0  0  0  0  0  0  0
   -6.8384    4.6193  -19.2502 C   0  0  0  0  0  0  0  0  0  0  0  0
   -7.8841    3.7933  -18.8819 C   0  0  0  0  0  0  0  0  0  0  0  0
   -8.3330    3.6227  -17.6281 N   0  0  0  0  0  0  0  0  0  0  0  0
   -7.6532    4.3102  -16.6727 C   0  0  0  0  0  0  0  0  0  0  0  0
   -7.9644    4.2819  -15.2846 C   0  0  0  0  0  0  0  0  0  0  0  0
   -7.1184    5.0562  -14.5298 C   0  0  0  0  0  0  0  0  0  0  0  0
   -5.9775    5.8701  -15.4985 S   0  0  0  0  0  0  0  0  0  0  0  0
   -6.5890    5.1693  -16.9555 C   0  0  0  0  0  0  0  0  0  0  0  0
  1  2  3  0
  2  3  1  0
  3  4  1  0
  4  5  1  6
  4  6  1  0
  6  7  1  0
  7  8  2  0
  8  9  1  0
  9 10  2  0
 10 11  1  0
 11 12  1  0
 12 13  2  0
 13 14  1  0
 14 15  1  0
 15  7  1  0
 15 11  2  0
M  END
>  <tags>  (217) 
openbind_xx01zvns2b_c1_knitwork_impure,fragmenstein_placed,openbind_xx01zvns2b_c1_scaffolds_chemok_bbok,BulkDock Fragalysis export,openbind_xx01zvns2b_c1_scaffolds

>  <placement_batch>  (217) 
openbind_xx01zvns2b_c1_knitwork_impure

>  <inspiration_score>  (217) 
None

>  <name>  (217) 
P60902

>  <HIPPO Pose ID>  (217) 
60902

>  <ref_pdb>  (217) 
Z3515a

>  <inchikey>  (217) 
YPPWYHHJNHQOST-UHFFFAOYSA-N

>  <alias>  (217) 
None

>  <ref_mols>  (217) 
Z0089a,Z3515a

>  <subsites>  (217) 
1 - Z4590/B/203/1

>  <distance_score>  (217) 
0.843945

>  <HIPPO Compound ID>  (217) 
108421

>  <smiles>  (217) 
C#CC[C@@H](C)Nc1ccnc2ccsc12

>  <energy_score>  (217) 
-15.782857

$$$$
P60988
     RDKit          3D

 19 20  0  0  0  0  0  0  0  0999 V2000
   -8.3646    7.2386  -13.7520 O   0  0  0  0  0  0  0  0  0  0  0  0
   -7.5407    6.4103  -13.8034 C   0  0  0  0  0  0  0  0  0  0  0  0
   -6.0342    6.4625  -13.4195 N   0  0  0  0  0  0  0  0  0  0  0  0
   -5.2626    7.5104  -12.8090 C   0  0  0  0  0  0  0  0  0  0  0  0
   -4.3800    8.1610  -13.8894 C   0  0  0  0  0  0  0  0  0  0  0  0
   -3.6211    7.1522  -14.6253 O   0  0  0  0  0  0  0  0  0  0  0  0
   -4.1210    6.7676  -15.9069 C   0  0  0  0  0  0  0  0  0  0  0  0
   -3.7878    5.3079  -16.1785 C   0  0  0  0  0  0  0  0  0  0  0  0
   -4.3434    4.8769  -17.4086 O   0  0  0  0  0  0  0  0  0  0  0  0
   -5.0514    9.3078  -14.7168 C   0  0  0  0  0  0  0  0  0  0  0  0
   -4.5398   10.3113  -13.6712 C   0  0  0  0  0  0  0  0  0  0  0  0
   -3.4678    9.2792  -13.2875 C   0  0  0  0  0  0  0  0  0  0  0  0
   -7.7880    4.9644  -14.3451 C   0  0  2  0  0  0  0  0  0  0  0  0
   -6.6771    4.1063  -14.0249 O   0  0  0  0  0  0  0  0  0  0  0  0
   -8.0192    4.9970  -15.8297 C   0  0  0  0  0  0  0  0  0  0  0  0
   -9.1278    4.6043  -16.5477 C   0  0  0  0  0  0  0  0  0  0  0  0
   -8.8177    4.8053  -17.8642 N   0  0  0  0  0  0  0  0  0  0  0  0
   -7.5361    5.2660  -17.9104 C   0  0  0  0  0  0  0  0  0  0  0  0
   -7.0073    5.3533  -16.7061 N   0  0  0  0  0  0  0  0  0  0  0  0
  1  2  2  0
  2  3  1  0
  3  4  1  0
  4  5  1  0
  5  6  1  0
  6  7  1  0
  7  8  1  0
  8  9  1  0
  5 10  1  0
 10 11  1  0
 11 12  1  0
  2 13  1  0
 13 14  1  6
 13 15  1  0
 15 16  2  0
 16 17  1  0
 17 18  1  0
 18 19  2  0
 12  5  1  0
 19 15  1  0
M  END
>  <tags>  (218) 
openbind_xx01zvns2b_c1_knitwork_impure,fragmenstein_placed

>  <placement_batch>  (218) 
openbind_xx01zvns2b_c1_knitwork_impure

>  <inspiration_score>  (218) 
None

>  <name>  (218) 
P60988

>  <HIPPO Pose ID>  (218) 
60988

>  <ref_pdb>  (218) 
Z0917a

>  <inchikey>  (218) 
GGBFSPYIYZKVSA-UHFFFAOYSA-N

>  <alias>  (218) 
None

>  <ref_mols>  (218) 
Z0917a,Z0884a

>  <subsites>  (218) 
1 - Z4590/B/203/1

>  <distance_score>  (218) 
0.827644

>  <HIPPO Compound ID>  (218) 
108582

>  <smiles>  (218) 
O=C(NCC1(OCCO)CCC1)[C@H](O)c1c[nH]cn1

>  <energy_score>  (218) 
-52.384956

$$$$
P61207
     RDKit          3D

 16 17  0  0  0  0  0  0  0  0999 V2000
   -1.4832    5.5113  -15.1848 N   0  0  0  0  0  0  0  0  0  0  0  0
   -2.3835    5.4115  -15.9076 C   0  0  0  0  0  0  0  0  0  0  0  0
   -3.6015    5.2925  -16.7092 C   0  0  0  0  0  0  0  0  0  0  0  0
   -4.8006    5.5621  -15.7760 C   0  0  1  0  0  0  0  0  0  0  0  0
   -4.9078    7.0817  -15.5000 C   0  0  0  0  0  0  0  0  0  0  0  0
   -5.7243    7.4738  -14.2635 C   0  0  0  0  0  0  0  0  0  0  0  0
   -5.1405    6.9381  -13.0415 N   0  0  0  0  0  0  0  0  0  0  0  0
   -6.1144    5.0282  -16.2967 C   0  0  0  0  0  0  0  0  0  0  0  0
   -7.0931    4.5920  -15.3875 C   0  0  0  0  0  0  0  0  0  0  0  0
   -8.3513    4.1657  -15.8206 C   0  0  0  0  0  0  0  0  0  0  0  0
   -8.6252    4.1648  -17.1962 C   0  0  0  0  0  0  0  0  0  0  0  0
   -9.7875    3.9144  -17.9714 C   0  0  0  0  0  0  0  0  0  0  0  0
   -9.4697    4.1953  -19.2753 C   0  0  0  0  0  0  0  0  0  0  0  0
   -8.1419    4.4968  -19.3468 N   0  0  0  0  0  0  0  0  0  0  0  0
   -7.6243    4.5662  -18.0808 C   0  0  0  0  0  0  0  0  0  0  0  0
   -6.3728    5.0073  -17.6702 C   0  0  0  0  0  0  0  0  0  0  0  0
  1  2  3  0
  2  3  1  0
  4  3  1  6
  4  5  1  0
  5  6  1  0
  6  7  1  0
  4  8  1  0
  8  9  2  0
  9 10  1  0
 10 11  2  0
 11 12  1  0
 12 13  2  0
 13 14  1  0
 14 15  1  0
 15 16  2  0
 16  8  1  0
 15 11  1  0
M  END
>  <tags>  (219) 
openbind_xx01zvns2b_c1_knitwork_impure,BulkDock Fragalysis export,fragmenstein_placed,openbind_xx01zvns2b_c1_scaffolds

>  <placement_batch>  (219) 
openbind_xx01zvns2b_c1_knitwork_impure

>  <inspiration_score>  (219) 
None

>  <name>  (219) 
P61207

>  <HIPPO Pose ID>  (219) 
61207

>  <ref_pdb>  (219) 
Z3729a

>  <inchikey>  (219) 
ZRWGYUBJZBJLNU-UHFFFAOYSA-N

>  <alias>  (219) 
None

>  <ref_mols>  (219) 
Z3729a,Z0472a

>  <subsites>  (219) 
1 - Z4590/B/203/1

>  <distance_score>  (219) 
0.932899

>  <HIPPO Compound ID>  (219) 
108795

>  <smiles>  (219) 
N#CC[C@@H](CCN)c1ccc2cc[nH]c2c1

>  <energy_score>  (219) 
-16.308332

$$$$
P61225
     RDKit          3D

 20 21  0  0  0  0  0  0  0  0999 V2000
    0.2707    7.5184  -16.3146 C   0  0  0  0  0  0  0  0  0  0  0  0
   -0.3080    5.8943  -15.7723 S   0  0  0  0  0  0  0  0  0  0  0  0
   -2.1443    5.9609  -16.0835 C   0  0  0  0  0  0  0  0  0  0  0  0
   -2.7512    4.9447  -15.0836 C   0  0  0  0  0  0  0  0  0  0  0  0
   -2.7207    7.3304  -15.7029 C   0  0  0  0  0  0  0  0  0  0  0  0
   -2.5208    5.4791  -17.5079 C   0  0  0  0  0  0  0  0  0  0  0  0
   -2.0408    6.2009  -18.7747 C   0  0  0  0  0  0  0  0  0  0  0  0
   -2.3453    7.6064  -19.0323 N   0  0  0  0  0  0  0  0  0  0  0  0
   -3.7391    8.0286  -18.9292 C   0  0  0  0  0  0  0  0  0  0  0  0
   -4.6844    7.6465  -20.0732 C   0  0  0  0  0  0  0  0  0  0  0  0
   -5.2014    6.2108  -20.1276 C   0  0  0  0  0  0  0  0  0  0  0  0
   -5.9727    5.7921  -18.9249 C   0  0  0  0  0  0  0  0  0  0  0  0
   -5.6914    6.0715  -17.6707 N   0  0  0  0  0  0  0  0  0  0  0  0
   -6.6345    5.4373  -16.9176 C   0  0  0  0  0  0  0  0  0  0  0  0
   -6.7813    5.4024  -15.5266 C   0  0  0  0  0  0  0  0  0  0  0  0
   -7.9088    4.7744  -15.0012 C   0  0  0  0  0  0  0  0  0  0  0  0
   -8.8571    4.2061  -15.8528 C   0  0  0  0  0  0  0  0  0  0  0  0
   -8.7017    4.1820  -17.2410 C   0  0  0  0  0  0  0  0  0  0  0  0
   -7.5646    4.8102  -17.7302 C   0  0  0  0  0  0  0  0  0  0  0  0
   -7.1022    5.0174  -19.0007 N   0  0  0  0  0  0  0  0  0  0  0  0
  1  2  1  0
  2  3  1  0
  3  4  1  0
  3  5  1  0
  3  6  1  0
  6  7  1  0
  7  8  1  0
  8  9  1  0
  9 10  1  0
 10 11  1  0
 11 12  1  0
 12 13  2  0
 13 14  1  0
 14 15  2  0
 15 16  1  0
 16 17  2  0
 17 18  1  0
 18 19  2  0
 19 20  1  0
 20 12  1  0
 19 14  1  0
M  END
>  <tags>  (220) 
openbind_xx01zvns2b_c1_knitwork_impure,fragmenstein_placed,openbind_xx01zvns2b_c1_scaffolds_chemok_bbok,BulkDock Fragalysis export,openbind_xx01zvns2b_c1_scaffolds

>  <placement_batch>  (220) 
openbind_xx01zvns2b_c1_knitwork_impure

>  <inspiration_score>  (220) 
None

>  <name>  (220) 
P61225

>  <HIPPO Pose ID>  (220) 
61225

>  <ref_pdb>  (220) 
Z3880a

>  <inchikey>  (220) 
GVIMLRVISKAQKL-UHFFFAOYSA-N

>  <alias>  (220) 
None

>  <ref_mols>  (220) 
Z3880a,Z0472a

>  <subsites>  (220) 
1 - Z4590/B/203/1

>  <distance_score>  (220) 
0.866537

>  <HIPPO Compound ID>  (220) 
108800

>  <smiles>  (220) 
CSC(C)(C)CCNCCCc1nc2ccccc2[nH]1

>  <energy_score>  (220) 
-44.524652

$$$$
P61228
     RDKit          3D

 15 16  0  0  0  0  0  0  0  0999 V2000
   -2.4148    5.0104  -15.3271 C   0  0  0  0  0  0  0  0  0  0  0  0
   -1.9956    5.6997  -16.6368 C   0  0  0  0  0  0  0  0  0  0  0  0
   -1.9726    7.2128  -16.3980 C   0  0  0  0  0  0  0  0  0  0  0  0
   -2.8872    5.2120  -17.6951 N   0  0  0  0  0  0  0  0  0  0  0  0
   -3.1021    6.0920  -18.8574 C   0  0  0  0  0  0  0  0  0  0  0  0
   -4.3985    5.7080  -19.6290 C   0  0  0  0  0  0  0  0  0  0  0  0
   -5.5618    5.6044  -18.6933 C   0  0  0  0  0  0  0  0  0  0  0  0
   -5.4886    5.8824  -17.4063 N   0  0  0  0  0  0  0  0  0  0  0  0
   -6.5929    5.3328  -16.8427 C   0  0  0  0  0  0  0  0  0  0  0  0
   -6.9195    5.2257  -15.4876 C   0  0  0  0  0  0  0  0  0  0  0  0
   -8.1330    4.6327  -15.1544 C   0  0  0  0  0  0  0  0  0  0  0  0
   -8.9914    4.1801  -16.1579 C   0  0  0  0  0  0  0  0  0  0  0  0
   -8.6705    4.2596  -17.5182 C   0  0  0  0  0  0  0  0  0  0  0  0
   -7.4442    4.8391  -17.8195 C   0  0  0  0  0  0  0  0  0  0  0  0
   -6.7880    5.0741  -19.0051 N   0  0  0  0  0  0  0  0  0  0  0  0
  1  2  1  0
  2  3  1  0
  2  4  1  0
  4  5  1  0
  5  6  1  0
  6  7  1  0
  7  8  2  0
  8  9  1  0
  9 10  2  0
 10 11  1  0
 11 12  2  0
 12 13  1  0
 13 14  2  0
 14 15  1  0
 15  7  1  0
 14  9  1  0
M  END
>  <tags>  (221) 
openbind_xx01zvns2b_c1_knitwork_impure,fragmenstein_placed,openbind_xx01zvns2b_c1_scaffolds_chemok_bbok,BulkDock Fragalysis export,openbind_xx01zvns2b_c1_scaffolds

>  <placement_batch>  (221) 
openbind_xx01zvns2b_c1_knitwork_impure

>  <inspiration_score>  (221) 
None

>  <name>  (221) 
P61228

>  <HIPPO Pose ID>  (221) 
61228

>  <ref_pdb>  (221) 
Z3880a

>  <inchikey>  (221) 
WBRVEYVJNBBESA-UHFFFAOYSA-N

>  <alias>  (221) 
None

>  <ref_mols>  (221) 
Z3880a,Z0472a

>  <subsites>  (221) 
1 - Z4590/B/203/1

>  <distance_score>  (221) 
0.875246

>  <HIPPO Compound ID>  (221) 
108807

>  <smiles>  (221) 
CC(C)NCCc1nc2ccccc2[nH]1

>  <energy_score>  (221) 
-17.846722

$$$$
P61231
     RDKit          3D

 18 19  0  0  0  0  0  0  0  0999 V2000
   -2.5115    4.7726  -15.0554 C   0  0  0  0  0  0  0  0  0  0  0  0
   -1.9992    5.4162  -16.1129 C   0  0  0  0  0  0  0  0  0  0  0  0
   -2.8294    5.7532  -17.3140 C   0  0  0  0  0  0  0  0  0  0  0  0
   -2.0231    6.2117  -18.5338 C   0  0  0  0  0  0  0  0  0  0  0  0
   -2.8575    6.3592  -19.8280 C   0  0  2  0  0  0  0  0  0  0  0  0
   -2.0211    6.9387  -20.9907 C   0  0  0  0  0  0  0  0  0  0  0  0
   -0.8230    6.0969  -21.3931 C   0  0  0  0  0  0  0  0  0  0  0  0
   -3.9874    7.2930  -19.6827 N   0  0  0  0  0  0  0  0  0  0  0  0
   -5.2685    6.6877  -20.0817 C   0  0  0  0  0  0  0  0  0  0  0  0
   -5.9277    6.0020  -18.9308 C   0  0  0  0  0  0  0  0  0  0  0  0
   -5.6381    6.1893  -17.6596 N   0  0  0  0  0  0  0  0  0  0  0  0
   -6.5493    5.4643  -16.9502 C   0  0  0  0  0  0  0  0  0  0  0  0
   -6.6913    5.3352  -15.5644 C   0  0  0  0  0  0  0  0  0  0  0  0
   -7.8149    4.6657  -15.0809 C   0  0  0  0  0  0  0  0  0  0  0  0
   -8.7573    4.1392  -15.9666 C   0  0  0  0  0  0  0  0  0  0  0  0
   -8.5933    4.1935  -17.3535 C   0  0  0  0  0  0  0  0  0  0  0  0
   -7.4639    4.8667  -17.8026 C   0  0  0  0  0  0  0  0  0  0  0  0
   -7.0037    5.1632  -19.0587 N   0  0  0  0  0  0  0  0  0  0  0  0
  1  2  2  0
  2  3  1  0
  3  4  1  0
  5  4  1  1
  5  6  1  0
  6  7  1  0
  5  8  1  0
  8  9  1  0
  9 10  1  0
 10 11  2  0
 11 12  1  0
 12 13  2  0
 13 14  1  0
 14 15  2  0
 15 16  1  0
 16 17  2  0
 17 18  1  0
 18 10  1  0
 17 12  1  0
M  END
>  <tags>  (222) 
openbind_xx01zvns2b_c1_knitwork_impure,BulkDock Fragalysis export,fragmenstein_placed,openbind_xx01zvns2b_c1_scaffolds

>  <placement_batch>  (222) 
openbind_xx01zvns2b_c1_knitwork_impure

>  <inspiration_score>  (222) 
None

>  <name>  (222) 
P61231

>  <HIPPO Pose ID>  (222) 
61231

>  <ref_pdb>  (222) 
Z3880a

>  <inchikey>  (222) 
PPDIMXJEBMYPTH-UHFFFAOYSA-N

>  <alias>  (222) 
None

>  <ref_mols>  (222) 
Z3880a,Z0472a

>  <subsites>  (222) 
1 - Z4590/B/203/1

>  <distance_score>  (222) 
0.914885

>  <HIPPO Compound ID>  (222) 
108810

>  <smiles>  (222) 
C=CCC[C@H](CC)NCc1nc2ccccc2[nH]1

>  <energy_score>  (222) 
-13.192342

$$$$
P61236
     RDKit          3D

 15 16  0  0  0  0  0  0  0  0999 V2000
   -0.7907    6.2484  -16.2853 C   0  0  0  0  0  0  0  0  0  0  0  0
   -2.2015    5.8958  -16.3645 N   0  0  0  0  0  0  0  0  0  0  0  0
   -2.6308    5.0679  -15.2423 C   0  0  0  0  0  0  0  0  0  0  0  0
   -2.5635    5.2970  -17.6625 C   0  0  0  0  0  0  0  0  0  0  0  0
   -2.9328    6.3947  -18.6811 C   0  0  0  0  0  0  0  0  0  0  0  0
   -4.2536    5.9012  -19.8567 S   0  0  0  0  0  0  0  0  0  0  0  0
   -5.5284    5.6357  -18.7235 C   0  0  0  0  0  0  0  0  0  0  0  0
   -5.4271    5.8757  -17.4420 N   0  0  0  0  0  0  0  0  0  0  0  0
   -6.5347    5.3189  -16.8866 C   0  0  0  0  0  0  0  0  0  0  0  0
   -6.8717    5.2042  -15.5338 C   0  0  0  0  0  0  0  0  0  0  0  0
   -8.0914    4.6176  -15.2084 C   0  0  0  0  0  0  0  0  0  0  0  0
   -8.9501    4.1766  -16.2168 C   0  0  0  0  0  0  0  0  0  0  0  0
   -8.6220    4.2629  -17.5754 C   0  0  0  0  0  0  0  0  0  0  0  0
   -7.3901    4.8364  -17.8700 C   0  0  0  0  0  0  0  0  0  0  0  0
   -6.7298    5.0840  -19.0520 N   0  0  0  0  0  0  0  0  0  0  0  0
  1  2  1  0
  2  3  1  0
  2  4  1  0
  4  5  1  0
  5  6  1  0
  6  7  1  0
  7  8  2  0
  8  9  1  0
  9 10  2  0
 10 11  1  0
 11 12  2  0
 12 13  1  0
 13 14  2  0
 14 15  1  0
 15  7  1  0
 14  9  1  0
M  END
>  <tags>  (223) 
openbind_xx01zvns2b_c1_knitwork_impure,BulkDock Fragalysis export,fragmenstein_placed,openbind_xx01zvns2b_c1_scaffolds

>  <placement_batch>  (223) 
openbind_xx01zvns2b_c1_knitwork_impure

>  <inspiration_score>  (223) 
None

>  <name>  (223) 
P61236

>  <HIPPO Pose ID>  (223) 
61236

>  <ref_pdb>  (223) 
Z3880a

>  <inchikey>  (223) 
BLYZKEFWCYBBHC-UHFFFAOYSA-N

>  <alias>  (223) 
None

>  <ref_mols>  (223) 
Z3880a,Z0472a

>  <subsites>  (223) 
1 - Z4590/B/203/1

>  <distance_score>  (223) 
0.93154

>  <HIPPO Compound ID>  (223) 
108822

>  <smiles>  (223) 
CN(C)CCSc1nc2ccccc2[nH]1

>  <energy_score>  (223) 
-25.22689

$$$$
P61237
     RDKit          3D

 19 20  0  0  0  0  0  0  0  0999 V2000
   -2.1993    4.5672  -14.4960 C   0  0  0  0  0  0  0  0  0  0  0  0
   -2.4137    5.1381  -15.5286 C   0  0  0  0  0  0  0  0  0  0  0  0
   -2.8098    5.8280  -16.7545 C   0  0  0  0  0  0  0  0  0  0  0  0
   -1.8121    6.8842  -17.2178 C   0  0  0  0  0  0  0  0  0  0  0  0
   -0.6160    6.4015  -18.0340 C   0  0  0  0  0  0  0  0  0  0  0  0
   -0.8716    5.5837  -19.3027 C   0  0  0  0  0  0  0  0  0  0  0  0
   -1.8052    6.1667  -20.3760 C   0  0  0  0  0  0  0  0  0  0  0  0
   -3.2660    6.0780  -19.9579 C   0  0  0  0  0  0  0  0  0  0  0  0
   -4.2318    6.3486  -21.0119 N   0  0  0  0  0  0  0  0  0  0  0  0
   -5.5388    6.7177  -20.4305 C   0  0  0  0  0  0  0  0  0  0  0  0
   -5.9841    5.9638  -19.2034 C   0  0  0  0  0  0  0  0  0  0  0  0
   -5.5632    6.1664  -17.9690 N   0  0  0  0  0  0  0  0  0  0  0  0
   -6.4181    5.4677  -17.1538 C   0  0  0  0  0  0  0  0  0  0  0  0
   -6.4759    5.4044  -15.7548 C   0  0  0  0  0  0  0  0  0  0  0  0
   -7.5587    4.7476  -15.1642 C   0  0  0  0  0  0  0  0  0  0  0  0
   -8.5492    4.1634  -15.9553 C   0  0  0  0  0  0  0  0  0  0  0  0
   -8.4724    4.1560  -17.3508 C   0  0  0  0  0  0  0  0  0  0  0  0
   -7.3806    4.8170  -17.9060 C   0  0  0  0  0  0  0  0  0  0  0  0
   -7.0026    5.0445  -19.2022 N   0  0  0  0  0  0  0  0  0  0  0  0
  1  2  3  0
  2  3  1  0
  3  4  1  0
  4  5  1  0
  5  6  1  0
  6  7  1  0
  7  8  1  0
  8  9  1  0
  9 10  1  0
 10 11  1  0
 11 12  2  0
 12 13  1  0
 13 14  2  0
 14 15  1  0
 15 16  2  0
 16 17  1  0
 17 18  2  0
 18 19  1  0
 19 11  1  0
 18 13  1  0
M  END
>  <tags>  (224) 
openbind_xx01zvns2b_c1_knitwork_impure,fragmenstein_placed,openbind_xx01zvns2b_c1_scaffolds_chemok_bbok,BulkDock Fragalysis export,openbind_xx01zvns2b_c1_scaffolds

>  <placement_batch>  (224) 
openbind_xx01zvns2b_c1_knitwork_impure

>  <inspiration_score>  (224) 
None

>  <name>  (224) 
P61237

>  <HIPPO Pose ID>  (224) 
61237

>  <ref_pdb>  (224) 
Z3880a

>  <inchikey>  (224) 
STYIBEWRCNUMOK-UHFFFAOYSA-N

>  <alias>  (224) 
None

>  <ref_mols>  (224) 
Z3880a,Z0472a

>  <subsites>  (224) 
1 - Z4590/B/203/1

>  <distance_score>  (224) 
0.977872

>  <HIPPO Compound ID>  (224) 
108823

>  <smiles>  (224) 
C#CCCCCCCNCc1nc2ccccc2[nH]1

>  <energy_score>  (224) 
-9.06679

$$$$
P61240
     RDKit          3D

 16 17  0  0  0  0  0  0  0  0999 V2000
   -2.4499    4.8504  -14.8745 C   0  0  0  0  0  0  0  0  0  0  0  0
   -1.7650    5.6820  -15.9454 C   0  0  0  0  0  0  0  0  0  0  0  0
   -2.6911    5.9206  -17.1313 C   0  0  0  0  0  0  0  0  0  0  0  0
   -1.9792    6.6310  -18.2036 N   0  0  0  0  0  0  0  0  0  0  0  0
   -2.9291    7.2220  -19.1553 C   0  0  0  0  0  0  0  0  0  0  0  0
   -3.5662    6.1897  -20.0909 C   0  0  0  0  0  0  0  0  0  0  0  0
   -5.3262    6.5436  -20.3598 S   0  0  0  0  0  0  0  0  0  0  0  0
   -5.9859    5.7898  -18.9585 C   0  0  0  0  0  0  0  0  0  0  0  0
   -5.5213    5.8806  -17.7411 N   0  0  0  0  0  0  0  0  0  0  0  0
   -6.4682    5.2853  -16.9535 C   0  0  0  0  0  0  0  0  0  0  0  0
   -6.5189    5.1681  -15.5599 C   0  0  0  0  0  0  0  0  0  0  0  0
   -7.6714    4.6299  -14.9854 C   0  0  0  0  0  0  0  0  0  0  0  0
   -8.7333    4.2100  -15.7889 C   0  0  0  0  0  0  0  0  0  0  0  0
   -8.6783    4.2585  -17.1836 C   0  0  0  0  0  0  0  0  0  0  0  0
   -7.5241    4.8136  -17.7227 C   0  0  0  0  0  0  0  0  0  0  0  0
   -7.1507    5.0924  -19.0090 N   0  0  0  0  0  0  0  0  0  0  0  0
  1  2  1  0
  2  3  1  0
  3  4  1  0
  4  5  1  0
  5  6  1  0
  6  7  1  0
  7  8  1  0
  8  9  2  0
  9 10  1  0
 10 11  2  0
 11 12  1  0
 12 13  2  0
 13 14  1  0
 14 15  2  0
 15 16  1  0
 16  8  1  0
 15 10  1  0
M  END
>  <tags>  (225) 
openbind_xx01zvns2b_c1_knitwork_impure,fragmenstein_placed,openbind_xx01zvns2b_c1_scaffolds_chemok_bbok,BulkDock Fragalysis export,openbind_xx01zvns2b_c1_scaffolds

>  <placement_batch>  (225) 
openbind_xx01zvns2b_c1_knitwork_impure

>  <inspiration_score>  (225) 
None

>  <name>  (225) 
P61240

>  <HIPPO Pose ID>  (225) 
61240

>  <ref_pdb>  (225) 
Z3880a

>  <inchikey>  (225) 
RRVXOGSKLADKNB-UHFFFAOYSA-N

>  <alias>  (225) 
None

>  <ref_mols>  (225) 
Z3880a,Z0472a

>  <subsites>  (225) 
1 - Z4590/B/203/1

>  <distance_score>  (225) 
0.913862

>  <HIPPO Compound ID>  (225) 
108826

>  <smiles>  (225) 
CCCNCCSc1nc2ccccc2[nH]1

>  <energy_score>  (225) 
-25.724237

$$$$
P61241
     RDKit          3D

 17 18  0  0  0  0  0  0  0  0999 V2000
   -2.6192    4.4242  -15.5902 F   0  0  0  0  0  0  0  0  0  0  0  0
   -2.3839    5.4826  -16.4026 C   0  0  0  0  0  0  0  0  0  0  0  0
   -1.0775    5.8126  -16.2603 F   0  0  0  0  0  0  0  0  0  0  0  0
   -3.1121    6.5226  -15.9364 F   0  0  0  0  0  0  0  0  0  0  0  0
   -2.7167    5.1447  -17.8709 C   0  0  0  0  0  0  0  0  0  0  0  0
   -2.8225    6.3038  -18.8090 N   0  0  0  0  0  0  0  0  0  0  0  0
   -3.5985    5.9468  -20.0118 C   0  0  0  0  0  0  0  0  0  0  0  0
   -5.0508    6.4625  -20.0091 C   0  0  0  0  0  0  0  0  0  0  0  0
   -5.8300    5.9226  -18.8635 C   0  0  0  0  0  0  0  0  0  0  0  0
   -5.5253    6.0959  -17.5944 N   0  0  0  0  0  0  0  0  0  0  0  0
   -6.4901    5.4376  -16.8867 C   0  0  0  0  0  0  0  0  0  0  0  0
   -6.6332    5.2998  -15.5019 C   0  0  0  0  0  0  0  0  0  0  0  0
   -7.7829    4.6727  -15.0201 C   0  0  0  0  0  0  0  0  0  0  0  0
   -8.7511    4.1933  -15.9051 C   0  0  0  0  0  0  0  0  0  0  0  0
   -8.5960    4.2665  -17.2919 C   0  0  0  0  0  0  0  0  0  0  0  0
   -7.4429    4.9006  -17.7399 C   0  0  0  0  0  0  0  0  0  0  0  0
   -6.9823    5.1930  -18.9961 N   0  0  0  0  0  0  0  0  0  0  0  0
  1  2  1  0
  2  3  1  0
  2  4  1  0
  2  5  1  0
  5  6  1  0
  6  7  1  0
  7  8  1  0
  8  9  1  0
  9 10  2  0
 10 11  1  0
 11 12  2  0
 12 13  1  0
 13 14  2  0
 14 15  1  0
 15 16  2  0
 16 17  1  0
 17  9  1  0
 16 11  1  0
M  END
>  <tags>  (226) 
openbind_xx01zvns2b_c1_knitwork_impure,fragmenstein_placed,openbind_xx01zvns2b_c1_scaffolds_chemok_bbok,BulkDock Fragalysis export,openbind_xx01zvns2b_c1_scaffolds

>  <placement_batch>  (226) 
openbind_xx01zvns2b_c1_knitwork_impure

>  <inspiration_score>  (226) 
None

>  <name>  (226) 
P61241

>  <HIPPO Pose ID>  (226) 
61241

>  <ref_pdb>  (226) 
Z3880a

>  <inchikey>  (226) 
MDHIDMWPVSUSIH-UHFFFAOYSA-N

>  <alias>  (226) 
None

>  <ref_mols>  (226) 
Z3880a,Z0472a

>  <subsites>  (226) 
1 - Z4590/B/203/1

>  <distance_score>  (226) 
0.806602

>  <HIPPO Compound ID>  (226) 
108828

>  <smiles>  (226) 
FC(F)(F)CNCCc1nc2ccccc2[nH]1

>  <energy_score>  (226) 
-16.926728

$$$$
P61243
     RDKit          3D

 17 18  0  0  0  0  0  0  0  0999 V2000
   -0.8076    6.2236  -15.9206 C   0  0  0  0  0  0  0  0  0  0  0  0
   -2.3208    5.9582  -16.0307 C   0  0  0  0  0  0  0  0  0  0  0  0
   -3.0453    7.2141  -15.4921 C   0  0  0  0  0  0  0  0  0  0  0  0
   -2.7240    4.7982  -15.1069 C   0  0  0  0  0  0  0  0  0  0  0  0
   -2.6777    5.5893  -17.5109 C   0  0  0  0  0  0  0  0  0  0  0  0
   -2.9914    6.7835  -18.3049 N   0  0  0  0  0  0  0  0  0  0  0  0
   -3.4316    6.5215  -19.6743 C   0  0  0  0  0  0  0  0  0  0  0  0
   -4.7168    5.7096  -19.9253 C   0  0  0  0  0  0  0  0  0  0  0  0
   -5.7329    5.6627  -18.8362 C   0  0  0  0  0  0  0  0  0  0  0  0
   -5.5797    6.0442  -17.5858 N   0  0  0  0  0  0  0  0  0  0  0  0
   -6.6021    5.4639  -16.8935 C   0  0  0  0  0  0  0  0  0  0  0  0
   -6.8292    5.4234  -15.5132 C   0  0  0  0  0  0  0  0  0  0  0  0
   -7.9832    4.7912  -15.0528 C   0  0  0  0  0  0  0  0  0  0  0  0
   -8.8885    4.2338  -15.9569 C   0  0  0  0  0  0  0  0  0  0  0  0
   -8.6687    4.2416  -17.3375 C   0  0  0  0  0  0  0  0  0  0  0  0
   -7.4991    4.8609  -17.7614 C   0  0  0  0  0  0  0  0  0  0  0  0
   -6.9539    5.0564  -19.0021 N   0  0  0  0  0  0  0  0  0  0  0  0
  1  2  1  0
  2  3  1  0
  2  4  1  0
  2  5  1  0
  5  6  1  0
  6  7  1  0
  7  8  1  0
  8  9  1  0
  9 10  2  0
 10 11  1  0
 11 12  2  0
 12 13  1  0
 13 14  2  0
 14 15  1  0
 15 16  2  0
 16 17  1  0
 17  9  1  0
 16 11  1  0
M  END
>  <tags>  (227) 
openbind_xx01zvns2b_c1_knitwork_impure,fragmenstein_placed,openbind_xx01zvns2b_c1_scaffolds_chemok_bbok,BulkDock Fragalysis export,openbind_xx01zvns2b_c1_scaffolds

>  <placement_batch>  (227) 
openbind_xx01zvns2b_c1_knitwork_impure

>  <inspiration_score>  (227) 
None

>  <name>  (227) 
P61243

>  <HIPPO Pose ID>  (227) 
61243

>  <ref_pdb>  (227) 
Z3880a

>  <inchikey>  (227) 
CQYJJBMIUAFBMT-UHFFFAOYSA-N

>  <alias>  (227) 
None

>  <ref_mols>  (227) 
Z3880a,Z0472a

>  <subsites>  (227) 
1 - Z4590/B/203/1

>  <distance_score>  (227) 
0.86483

>  <HIPPO Compound ID>  (227) 
108831

>  <smiles>  (227) 
CC(C)(C)CNCCc1nc2ccccc2[nH]1

>  <energy_score>  (227) 
-12.340018

$$$$
P61245
     RDKit          3D

 15 16  0  0  0  0  0  0  0  0999 V2000
   -2.8077    4.9226  -15.1032 C   0  0  0  0  0  0  0  0  0  0  0  0
   -2.6349    5.2276  -16.5209 C   0  0  0  0  0  0  0  0  0  0  0  0
   -2.5462    5.5129  -17.6848 C   0  0  0  0  0  0  0  0  0  0  0  0
   -2.4319    5.9230  -19.0895 C   0  0  0  0  0  0  0  0  0  0  0  0
   -3.4819    5.3661  -19.9525 N   0  0  0  0  0  0  0  0  0  0  0  0
   -4.7094    6.1853  -19.9461 C   0  0  0  0  0  0  0  0  0  0  0  0
   -5.6379    5.8028  -18.8430 C   0  0  0  0  0  0  0  0  0  0  0  0
   -5.4510    6.0488  -17.5631 N   0  0  0  0  0  0  0  0  0  0  0  0
   -6.4783    5.4319  -16.9104 C   0  0  0  0  0  0  0  0  0  0  0  0
   -6.7260    5.3389  -15.5356 C   0  0  0  0  0  0  0  0  0  0  0  0
   -7.8978    4.7089  -15.1151 C   0  0  0  0  0  0  0  0  0  0  0  0
   -8.7975    4.1954  -16.0510 C   0  0  0  0  0  0  0  0  0  0  0  0
   -8.5522    4.2491  -17.4270 C   0  0  0  0  0  0  0  0  0  0  0  0
   -7.3713    4.8752  -17.8134 C   0  0  0  0  0  0  0  0  0  0  0  0
   -6.8163    5.1246  -19.0423 N   0  0  0  0  0  0  0  0  0  0  0  0
  1  2  1  0
  2  3  3  0
  3  4  1  0
  4  5  1  0
  5  6  1  0
  6  7  1  0
  7  8  2  0
  8  9  1  0
  9 10  2  0
 10 11  1  0
 11 12  2  0
 12 13  1  0
 13 14  2  0
 14 15  1  0
 15  7  1  0
 14  9  1  0
M  END
>  <tags>  (228) 
openbind_xx01zvns2b_c1_knitwork_impure,BulkDock Fragalysis export,fragmenstein_placed,openbind_xx01zvns2b_c1_scaffolds

>  <placement_batch>  (228) 
openbind_xx01zvns2b_c1_knitwork_impure

>  <inspiration_score>  (228) 
None

>  <name>  (228) 
P61245

>  <HIPPO Pose ID>  (228) 
61245

>  <ref_pdb>  (228) 
Z3880a

>  <inchikey>  (228) 
LLBNSGCLFSMYMB-UHFFFAOYSA-N

>  <alias>  (228) 
None

>  <ref_mols>  (228) 
Z3880a,Z0472a

>  <subsites>  (228) 
1 - Z4590/B/203/1

>  <distance_score>  (228) 
0.814084

>  <HIPPO Compound ID>  (228) 
108838

>  <smiles>  (228) 
CC#CCNCc1nc2ccccc2[nH]1

>  <energy_score>  (228) 
-9.784156

$$$$
P61248
     RDKit          3D

 19 20  0  0  0  0  0  0  0  0999 V2000
   -2.6535    4.8160  -15.1639 C   0  0  0  0  0  0  0  0  0  0  0  0
   -2.2684    5.8349  -16.2501 C   0  0  1  0  0  0  0  0  0  0  0  0
   -2.9877    5.4077  -17.4649 N   0  0  0  0  0  0  0  0  0  0  0  0
   -2.5453    5.9927  -18.7227 C   0  0  0  0  0  0  0  0  0  0  0  0
   -3.4730    5.6514  -19.9071 C   0  0  0  0  0  0  0  0  0  0  0  0
   -4.8279    6.3777  -19.9342 C   0  0  0  0  0  0  0  0  0  0  0  0
   -5.7411    5.9250  -18.8526 C   0  0  0  0  0  0  0  0  0  0  0  0
   -5.5567    6.1697  -17.5721 N   0  0  0  0  0  0  0  0  0  0  0  0
   -6.5512    5.5010  -16.9163 C   0  0  0  0  0  0  0  0  0  0  0  0
   -6.7822    5.3916  -15.5406 C   0  0  0  0  0  0  0  0  0  0  0  0
   -7.9268    4.7169  -15.1177 C   0  0  0  0  0  0  0  0  0  0  0  0
   -8.8112    4.1753  -16.0525 C   0  0  0  0  0  0  0  0  0  0  0  0
   -8.5732    4.2358  -17.4296 C   0  0  0  0  0  0  0  0  0  0  0  0
   -7.4190    4.9068  -17.8193 C   0  0  0  0  0  0  0  0  0  0  0  0
   -6.8779    5.1832  -19.0492 N   0  0  0  0  0  0  0  0  0  0  0  0
   -2.5309    7.2492  -15.6399 C   0  0  0  0  0  0  0  0  0  0  0  0
   -2.2856    8.4441  -16.5337 C   0  0  0  0  0  0  0  0  0  0  0  0
   -3.8027    7.3359  -15.1605 F   0  0  0  0  0  0  0  0  0  0  0  0
   -1.7175    7.3963  -14.5481 F   0  0  0  0  0  0  0  0  0  0  0  0
  2  1  1  1
  2  3  1  0
  3  4  1  0
  4  5  1  0
  5  6  1  0
  6  7  1  0
  7  8  2  0
  8  9  1  0
  9 10  2  0
 10 11  1  0
 11 12  2  0
 12 13  1  0
 13 14  2  0
 14 15  1  0
  2 16  1  0
 16 17  1  0
 16 18  1  0
 16 19  1  0
 15  7  1  0
 14  9  1  0
M  END
>  <tags>  (229) 
openbind_xx01zvns2b_c1_knitwork_impure,fragmenstein_placed,openbind_xx01zvns2b_c1_scaffolds_chemok_bbok,BulkDock Fragalysis export,openbind_xx01zvns2b_c1_scaffolds

>  <placement_batch>  (229) 
openbind_xx01zvns2b_c1_knitwork_impure

>  <inspiration_score>  (229) 
None

>  <name>  (229) 
P61248

>  <HIPPO Pose ID>  (229) 
61248

>  <ref_pdb>  (229) 
Z3880a

>  <inchikey>  (229) 
CBMCEICBMMKLJR-UHFFFAOYSA-N

>  <alias>  (229) 
None

>  <ref_mols>  (229) 
Z3880a,Z0472a

>  <subsites>  (229) 
1 - Z4590/B/203/1

>  <distance_score>  (229) 
0.815595

>  <HIPPO Compound ID>  (229) 
108847

>  <smiles>  (229) 
C[C@@H](NCCCc1nc2ccccc2[nH]1)C(C)(F)F

>  <energy_score>  (229) 
-44.275821

$$$$
P61290
     RDKit          3D

 16 18  0  0  0  0  0  0  0  0999 V2000
   -9.3114    3.9268  -17.9083 C   0  0  0  0  0  0  0  0  0  0  0  0
   -9.3210    3.9154  -16.5206 C   0  0  0  0  0  0  0  0  0  0  0  0
   -8.1778    4.2576  -15.7995 C   0  0  0  0  0  0  0  0  0  0  0  0
   -7.0169    4.6489  -16.4424 C   0  0  0  0  0  0  0  0  0  0  0  0
   -5.9648    5.0177  -15.7086 N   0  0  0  0  0  0  0  0  0  0  0  0
   -4.8698    5.4566  -16.3461 C   0  0  0  0  0  0  0  0  0  0  0  0
   -3.8196    5.9793  -15.5818 N   0  0  0  0  0  0  0  0  0  0  0  0
   -3.6028    5.2471  -14.3292 C   0  0  0  0  0  0  0  0  0  0  0  0
   -2.7066    6.0674  -13.4044 C   0  0  0  0  0  0  0  0  0  0  0  0
   -3.3824    7.3859  -13.0184 C   0  0  0  0  0  0  0  0  0  0  0  0
   -4.3919    7.8577  -14.0683 C   0  0  0  0  0  0  0  0  0  0  0  0
   -3.9673    7.4377  -15.4757 C   0  0  0  0  0  0  0  0  0  0  0  0
   -4.7665    5.5320  -17.6826 N   0  0  0  0  0  0  0  0  0  0  0  0
   -5.8284    5.1140  -18.4040 C   0  0  0  0  0  0  0  0  0  0  0  0
   -7.0104    4.6736  -17.8364 C   0  0  0  0  0  0  0  0  0  0  0  0
   -8.1479    4.2911  -18.5720 C   0  0  0  0  0  0  0  0  0  0  0  0
  1  2  2  0
  2  3  1  0
  3  4  2  0
  4  5  1  0
  5  6  2  0
  6  7  1  0
  7  8  1  0
  8  9  1  0
  9 10  1  0
 10 11  1  0
 11 12  1  0
  6 13  1  0
 13 14  2  0
 14 15  1  0
 15 16  2  0
 16  1  1  0
 15  4  1  0
 12  7  1  0
M  END
>  <tags>  (230) 
openbind_xx01zvns2b_c1_knitwork_impure,fragmenstein_placed,openbind_xx01zvns2b_c1_scaffolds_chemok_bbok,BulkDock Fragalysis export,openbind_xx01zvns2b_c1_scaffolds

>  <placement_batch>  (230) 
openbind_xx01zvns2b_c1_knitwork_impure

>  <inspiration_score>  (230) 
None

>  <name>  (230) 
P61290

>  <HIPPO Pose ID>  (230) 
61290

>  <ref_pdb>  (230) 
Z1729a

>  <inchikey>  (230) 
OEXOFQHAICCVNL-UHFFFAOYSA-N

>  <alias>  (230) 
None

>  <ref_mols>  (230) 
Z1729a,Z0709a

>  <subsites>  (230) 
1 - Z4590/B/203/1

>  <distance_score>  (230) 
0.540847

>  <HIPPO Compound ID>  (230) 
14289

>  <smiles>  (230) 
c1ccc2nc(N3CCCCC3)ncc2c1

>  <energy_score>  (230) 
-8.132563

$$$$
P61291
     RDKit          3D

 16 18  0  0  0  0  0  0  0  0999 V2000
   -4.5623    5.9536  -16.1308 O   0  0  0  0  0  0  0  0  0  0  0  0
   -5.3465    5.4085  -16.8969 C   0  0  0  0  0  0  0  0  0  0  0  0
   -5.2104    5.2018  -18.2841 N   0  0  0  0  0  0  0  0  0  0  0  0
   -4.2474    5.7837  -19.2051 C   0  0  2  0  0  0  0  0  0  0  0  0
   -2.8128    5.2760  -19.0037 C   0  0  0  0  0  0  0  0  0  0  0  0
   -2.0019    6.0732  -17.9836 C   0  0  0  0  0  0  0  0  0  0  0  0
   -2.1756    7.5808  -18.1478 C   0  0  0  0  0  0  0  0  0  0  0  0
   -3.5858    7.9745  -18.1176 N   0  0  0  0  0  0  0  0  0  0  0  0
   -4.3140    7.3245  -19.2201 C   0  0  0  0  0  0  0  0  0  0  0  0
   -6.3920    4.6964  -18.8054 N   0  0  0  0  0  0  0  0  0  0  0  0
   -7.1655    4.5650  -17.7781 C   0  0  0  0  0  0  0  0  0  0  0  0
   -8.5670    4.1010  -17.7643 C   0  0  0  0  0  0  0  0  0  0  0  0
   -9.1934    4.0796  -16.5780 C   0  0  0  0  0  0  0  0  0  0  0  0
   -8.5204    4.4818  -15.3579 C   0  0  0  0  0  0  0  0  0  0  0  0
   -7.2519    4.9142  -15.3982 C   0  0  0  0  0  0  0  0  0  0  0  0
   -6.6062    4.9422  -16.6000 N   0  0  0  0  0  0  0  0  0  0  0  0
  1  2  2  0
  2  3  1  0
  4  3  1  1
  4  5  1  0
  5  6  1  0
  6  7  1  0
  7  8  1  0
  8  9  1  0
  3 10  1  0
 10 11  2  0
 11 12  1  0
 12 13  2  0
 13 14  1  0
 14 15  2  0
 15 16  1  0
 16  2  1  0
  9  4  1  0
 16 11  1  0
M  END
>  <tags>  (231) 
openbind_xx01zvns2b_c1_knitwork_impure,BulkDock Fragalysis export,fragmenstein_placed,openbind_xx01zvns2b_c1_scaffolds

>  <placement_batch>  (231) 
openbind_xx01zvns2b_c1_knitwork_impure

>  <inspiration_score>  (231) 
None

>  <name>  (231) 
P61291

>  <HIPPO Pose ID>  (231) 
61291

>  <ref_pdb>  (231) 
Z1729a

>  <inchikey>  (231) 
QWOGZNAEZRFOAF-UHFFFAOYSA-N

>  <alias>  (231) 
None

>  <ref_mols>  (231) 
Z1729a,Z0709a

>  <subsites>  (231) 
1 - Z4590/B/203/1

>  <distance_score>  (231) 
0.977233

>  <HIPPO Compound ID>  (231) 
65573

>  <smiles>  (231) 
O=c1n([C@@H]2CCCNC2)nc2ccccn12

>  <energy_score>  (231) 
-34.616987

$$$$
P61296
     RDKit          3D

 15 17  0  0  0  0  0  0  0  0999 V2000
   -9.3954    3.9736  -17.0036 C   0  0  0  0  0  0  0  0  0  0  0  0
   -8.4966    4.1301  -15.9746 C   0  0  0  0  0  0  0  0  0  0  0  0
   -7.2210    4.5566  -16.4415 C   0  0  0  0  0  0  0  0  0  0  0  0
   -6.1703    4.8605  -15.6501 N   0  0  0  0  0  0  0  0  0  0  0  0
   -5.0961    5.3568  -16.2679 C   0  0  0  0  0  0  0  0  0  0  0  0
   -4.0429    5.8372  -15.4795 N   0  0  0  0  0  0  0  0  0  0  0  0
   -3.9693    5.2345  -14.1452 C   0  0  0  0  0  0  0  0  0  0  0  0
   -2.9507    5.9945  -13.2991 C   0  0  0  0  0  0  0  0  0  0  0  0
   -3.3840    7.4487  -13.0973 C   0  0  0  0  0  0  0  0  0  0  0  0
   -4.3065    7.9461  -14.2129 C   0  0  0  0  0  0  0  0  0  0  0  0
   -3.9582    7.3013  -15.5556 C   0  0  0  0  0  0  0  0  0  0  0  0
   -4.9869    5.5049  -17.6027 N   0  0  0  0  0  0  0  0  0  0  0  0
   -6.0119    5.1278  -18.4044 C   0  0  0  0  0  0  0  0  0  0  0  0
   -7.1807    4.6740  -17.8236 C   0  0  0  0  0  0  0  0  0  0  0  0
   -8.6725    4.2193  -18.5322 S   0  0  0  0  0  0  0  0  0  0  0  0
  1  2  2  0
  2  3  1  0
  3  4  2  0
  4  5  1  0
  5  6  1  0
  6  7  1  0
  7  8  1  0
  8  9  1  0
  9 10  1  0
 10 11  1  0
  5 12  2  0
 12 13  1  0
 13 14  2  0
 14 15  1  0
 15  1  1  0
 14  3  1  0
 11  6  1  0
M  END
>  <tags>  (232) 
openbind_xx01zvns2b_c1_knitwork_impure,BulkDock Fragalysis export,fragmenstein_placed,openbind_xx01zvns2b_c1_scaffolds

>  <placement_batch>  (232) 
openbind_xx01zvns2b_c1_knitwork_impure

>  <inspiration_score>  (232) 
None

>  <name>  (232) 
P61296

>  <HIPPO Pose ID>  (232) 
61296

>  <ref_pdb>  (232) 
Z1729a

>  <inchikey>  (232) 
JWHRATYBNVHVPU-UHFFFAOYSA-N

>  <alias>  (232) 
None

>  <ref_mols>  (232) 
Z1729a,Z0709a

>  <subsites>  (232) 
1 - Z4590/B/203/1

>  <distance_score>  (232) 
0.909006

>  <HIPPO Compound ID>  (232) 
65583

>  <smiles>  (232) 
c1cc2nc(N3CCCCC3)ncc2s1

>  <energy_score>  (232) 
-24.039125

$$$$
P61410
     RDKit          3D

 15 16  0  0  0  0  0  0  0  0999 V2000
   -9.6128    4.3640  -18.3179 N   0  0  0  0  0  0  0  0  0  0  0  0
   -8.5855    4.4971  -17.4783 C   0  0  0  0  0  0  0  0  0  0  0  0
   -7.3698    4.9453  -17.6845 N   0  0  0  0  0  0  0  0  0  0  0  0
   -6.7364    4.9391  -16.4570 N   0  0  0  0  0  0  0  0  0  0  0  0
   -7.6162    4.4646  -15.5967 C   0  0  0  0  0  0  0  0  0  0  0  0
   -7.5239    4.3135  -14.1257 C   0  0  0  0  0  0  0  0  0  0  0  0
   -6.2739    3.7345  -13.7139 N   0  0  0  0  0  0  0  0  0  0  0  0
   -5.9446    2.3112  -13.2135 C   0  0  0  0  0  0  0  0  0  0  0  0
   -6.6475    1.4092  -12.9840 O   0  0  0  0  0  0  0  0  0  0  0  0
   -4.4090    2.2076  -13.0483 C   0  0  0  0  0  0  0  0  0  0  0  0
   -3.7724    3.5417  -12.8843 N   0  0  0  0  0  0  0  0  0  0  0  0
   -2.3120    3.3767  -12.6931 C   0  0  0  0  0  0  0  0  0  0  0  0
   -2.5124    3.3933  -11.1722 C   0  0  0  0  0  0  0  0  0  0  0  0
   -3.8924    3.9929  -11.4735 C   0  0  0  0  0  0  0  0  0  0  0  0
   -8.8303    4.1979  -16.1742 O   0  0  0  0  0  0  0  0  0  0  0  0
  1  2  1  0
  2  3  2  0
  3  4  1  0
  4  5  2  0
  5  6  1  0
  6  7  1  0
  7  8  1  0
  8  9  2  0
  8 10  1  0
 10 11  1  0
 11 12  1  0
 12 13  1  0
 13 14  1  0
  5 15  1  0
 15  2  1  0
 14 11  1  0
M  END
>  <tags>  (233) 
openbind_xx01zvns2b_c1_knitwork_impure,fragmenstein_placed,openbind_xx01zvns2b_c1_scaffolds_chemok_bbok,BulkDock Fragalysis export,openbind_xx01zvns2b_c1_scaffolds

>  <placement_batch>  (233) 
openbind_xx01zvns2b_c1_knitwork_impure

>  <inspiration_score>  (233) 
None

>  <name>  (233) 
P61410

>  <HIPPO Pose ID>  (233) 
61410

>  <ref_pdb>  (233) 
Z0719a

>  <inchikey>  (233) 
QPCCVLCZAHYDRH-UHFFFAOYSA-N

>  <alias>  (233) 
None

>  <ref_mols>  (233) 
Z0719a,Z0089a

>  <subsites>  (233) 
1 - Z4590/B/203/1

>  <distance_score>  (233) 
0.785939

>  <HIPPO Compound ID>  (233) 
109020

>  <smiles>  (233) 
Nc1nnc(CNC(=O)CN2CCC2)o1

>  <energy_score>  (233) 
-27.321951

$$$$
P61561
     RDKit          3D

 22 25  0  0  0  0  0  0  0  0999 V2000
   -6.5284    3.9616  -20.8572 O   0  0  0  0  0  0  0  0  0  0  0  0
   -5.7406    4.5873  -20.2647 C   0  0  0  0  0  0  0  0  0  0  0  0
   -5.7814    5.1440  -18.8239 N   0  0  0  0  0  0  0  0  0  0  0  0
   -6.7229    4.9736  -17.8171 C   0  0  0  0  0  0  0  0  0  0  0  0
   -8.0461    4.6049  -18.0127 C   0  0  0  0  0  0  0  0  0  0  0  0
   -8.9039    4.5127  -16.8965 C   0  0  0  0  0  0  0  0  0  0  0  0
   -8.4510    4.7248  -15.5856 C   0  0  0  0  0  0  0  0  0  0  0  0
   -9.2475    4.6046  -14.5017 N   0  0  0  0  0  0  0  0  0  0  0  0
   -8.6784    4.6514  -13.2697 C   0  0  0  0  0  0  0  0  0  0  0  0
   -7.3605    4.9582  -13.0312 C   0  0  0  0  0  0  0  0  0  0  0  0
   -6.5647    5.1942  -14.1336 C   0  0  0  0  0  0  0  0  0  0  0  0
   -7.0954    5.0551  -15.4213 C   0  0  0  0  0  0  0  0  0  0  0  0
   -6.2624    5.2197  -16.5262 C   0  0  0  0  0  0  0  0  0  0  0  0
   -4.4570    4.9832  -20.8994 C   0  0  0  0  0  0  0  0  0  0  0  0
   -3.2373    4.7438  -20.2700 C   0  0  0  0  0  0  0  0  0  0  0  0
   -2.0948    5.1206  -20.9401 C   0  0  0  0  0  0  0  0  0  0  0  0
   -2.1112    5.7363  -22.1411 N   0  0  0  0  0  0  0  0  0  0  0  0
   -3.3035    5.9731  -22.7464 C   0  0  0  0  0  0  0  0  0  0  0  0
   -3.2996    6.6325  -24.1045 C   0  0  0  0  0  0  0  0  0  0  0  0
   -4.0405    7.9312  -24.3301 C   0  0  0  0  0  0  0  0  0  0  0  0
   -2.5417    7.9243  -24.3084 C   0  0  0  0  0  0  0  0  0  0  0  0
   -4.4981    5.5995  -22.1425 C   0  0  0  0  0  0  0  0  0  0  0  0
  1  2  2  0
  2  3  1  0
  3  4  1  0
  4  5  2  0
  5  6  1  0
  6  7  2  0
  7  8  1  0
  8  9  2  0
  9 10  1  0
 10 11  2  0
 11 12  1  0
 12 13  2  0
  2 14  1  0
 14 15  2  0
 15 16  1  0
 16 17  2  0
 17 18  1  0
 18 19  1  0
 19 20  1  0
 20 21  1  0
 18 22  2  0
 13  4  1  0
 22 14  1  0
 12  7  1  0
 21 19  1  0
M  END
>  <tags>  (234) 
openbind_xx01zvns2b_c1_knitwork_impure,fragmenstein_placed,openbind_xx01zvns2b_c1_scaffolds_chemok_bbok,BulkDock Fragalysis export,openbind_xx01zvns2b_c1_scaffolds

>  <placement_batch>  (234) 
openbind_xx01zvns2b_c1_knitwork_impure

>  <inspiration_score>  (234) 
None

>  <name>  (234) 
P61561

>  <HIPPO Pose ID>  (234) 
61561

>  <ref_pdb>  (234) 
Z0852a

>  <inchikey>  (234) 
YYVLJTMETXNXNX-UHFFFAOYSA-N

>  <alias>  (234) 
None

>  <ref_mols>  (234) 
Z0852a,Z0772a

>  <subsites>  (234) 
1 - Z4590/B/203/1

>  <distance_score>  (234) 
0.905017

>  <HIPPO Compound ID>  (234) 
47392

>  <smiles>  (234) 
O=C(Nc1ccc2ncccc2c1)c1ccnc(C2CC2)c1

>  <energy_score>  (234) 
-20.791638

$$$$
P61563
     RDKit          3D

 21 24  0  0  0  0  0  0  0  0999 V2000
   -6.4626    4.0104  -20.5521 O   0  0  0  0  0  0  0  0  0  0  0  0
   -5.7538    4.7319  -19.9675 C   0  0  0  0  0  0  0  0  0  0  0  0
   -5.8988    5.3572  -18.5650 N   0  0  0  0  0  0  0  0  0  0  0  0
   -6.8626    5.1604  -17.5840 C   0  0  0  0  0  0  0  0  0  0  0  0
   -8.1533    4.6319  -17.8486 C   0  0  0  0  0  0  0  0  0  0  0  0
   -9.1334    4.4619  -16.8317 C   0  0  0  0  0  0  0  0  0  0  0  0
   -8.7147    4.7859  -15.5135 C   0  0  0  0  0  0  0  0  0  0  0  0
   -9.4063    4.7469  -14.3622 N   0  0  0  0  0  0  0  0  0  0  0  0
   -8.4086    5.0242  -13.0701 S   0  0  0  0  0  0  0  0  0  0  0  0
   -7.0437    5.4605  -13.9819 C   0  0  0  0  0  0  0  0  0  0  0  0
   -7.3628    5.2791  -15.3040 C   0  0  0  0  0  0  0  0  0  0  0  0
   -6.4247    5.5213  -16.2947 C   0  0  0  0  0  0  0  0  0  0  0  0
   -4.4579    5.1350  -20.6011 C   0  0  0  0  0  0  0  0  0  0  0  0
   -4.5062    5.3869  -21.9776 C   0  0  0  0  0  0  0  0  0  0  0  0
   -3.3384    5.6450  -22.6825 C   0  0  0  0  0  0  0  0  0  0  0  0
   -2.1528    5.6483  -21.9831 C   0  0  0  0  0  0  0  0  0  0  0  0
   -2.0803    5.4691  -20.6506 N   0  0  0  0  0  0  0  0  0  0  0  0
   -3.2159    5.2096  -19.9409 C   0  0  0  0  0  0  0  0  0  0  0  0
   -3.0083    5.0816  -18.4336 C   0  0  0  0  0  0  0  0  0  0  0  0
   -1.7055    5.5239  -17.7902 C   0  0  0  0  0  0  0  0  0  0  0  0
   -2.9150    6.3772  -17.6329 C   0  0  0  0  0  0  0  0  0  0  0  0
  1  2  2  0
  2  3  1  0
  3  4  1  0
  4  5  1  0
  5  6  2  0
  6  7  1  0
  7  8  2  0
  8  9  1  0
  9 10  1  0
 10 11  2  0
 11 12  1  0
  2 13  1  0
 13 14  2  0
 14 15  1  0
 15 16  2  0
 16 17  1  0
 17 18  2  0
 18 19  1  0
 19 20  1  0
 20 21  1  0
 12  4  2  0
 18 13  1  0
 21 19  1  0
 11  7  1  0
M  END
>  <tags>  (235) 
openbind_xx01zvns2b_c1_knitwork_impure,BulkDock Fragalysis export,fragmenstein_placed,openbind_xx01zvns2b_c1_scaffolds

>  <placement_batch>  (235) 
openbind_xx01zvns2b_c1_knitwork_impure

>  <inspiration_score>  (235) 
None

>  <name>  (235) 
P61563

>  <HIPPO Pose ID>  (235) 
61563

>  <ref_pdb>  (235) 
Z0852a

>  <inchikey>  (235) 
PERFJFZKSNQGTG-UHFFFAOYSA-N

>  <alias>  (235) 
None

>  <ref_mols>  (235) 
Z0852a,Z0772a

>  <subsites>  (235) 
1 - Z4590/B/203/1

>  <distance_score>  (235) 
0.94444

>  <HIPPO Compound ID>  (235) 
69613

>  <smiles>  (235) 
O=C(Nc1ccc2nscc2c1)c1cccnc1C1CC1

>  <energy_score>  (235) 
-38.780615

$$$$
P61570
     RDKit          3D

 19 21  0  0  0  0  0  0  0  0999 V2000
   -6.3316    4.1735  -20.5637 C   0  0  0  0  0  0  0  0  0  0  0  0
   -5.6942    5.3874  -19.9250 C   0  0  1  0  0  0  0  0  0  0  0  0
   -5.5979    5.2790  -18.4753 N   0  0  0  0  0  0  0  0  0  0  0  0
   -6.5963    5.1238  -17.5381 C   0  0  0  0  0  0  0  0  0  0  0  0
   -7.9612    4.9823  -17.7539 C   0  0  0  0  0  0  0  0  0  0  0  0
   -8.8482    4.8187  -16.6632 C   0  0  0  0  0  0  0  0  0  0  0  0
   -8.4034    4.7789  -15.3384 C   0  0  0  0  0  0  0  0  0  0  0  0
   -9.2361    4.6979  -14.2751 N   0  0  0  0  0  0  0  0  0  0  0  0
   -8.6787    4.5168  -13.0473 C   0  0  0  0  0  0  0  0  0  0  0  0
   -7.3293    4.5248  -12.7840 C   0  0  0  0  0  0  0  0  0  0  0  0
   -6.4860    4.7100  -13.8573 C   0  0  0  0  0  0  0  0  0  0  0  0
   -7.0160    4.8308  -15.1441 C   0  0  0  0  0  0  0  0  0  0  0  0
   -6.1485    5.0001  -16.2207 C   0  0  0  0  0  0  0  0  0  0  0  0
   -4.2804    5.4539  -20.5405 C   0  0  0  0  0  0  0  0  0  0  0  0
   -3.1870    4.8492  -19.9077 C   0  0  0  0  0  0  0  0  0  0  0  0
   -1.9539    4.8226  -20.5488 C   0  0  0  0  0  0  0  0  0  0  0  0
   -1.8355    5.3888  -21.8085 C   0  0  0  0  0  0  0  0  0  0  0  0
   -2.9584    5.9665  -22.3737 C   0  0  0  0  0  0  0  0  0  0  0  0
   -4.1695    6.0155  -21.7745 N   0  0  0  0  0  0  0  0  0  0  0  0
  2  1  1  6
  2  3  1  0
  3  4  1  0
  4  5  2  0
  5  6  1  0
  6  7  2  0
  7  8  1  0
  8  9  2  0
  9 10  1  0
 10 11  2  0
 11 12  1  0
 12 13  2  0
  2 14  1  0
 14 15  2  0
 15 16  1  0
 16 17  2  0
 17 18  1  0
 18 19  2  0
 13  4  1  0
 19 14  1  0
 12  7  1  0
M  END
>  <tags>  (236) 
openbind_xx01zvns2b_c1_knitwork_impure,BulkDock Fragalysis export,fragmenstein_placed,openbind_xx01zvns2b_c1_scaffolds

>  <placement_batch>  (236) 
openbind_xx01zvns2b_c1_knitwork_impure

>  <inspiration_score>  (236) 
None

>  <name>  (236) 
P61570

>  <HIPPO Pose ID>  (236) 
61570

>  <ref_pdb>  (236) 
Z0852a

>  <inchikey>  (236) 
UDAWGCOOVDDRSC-UHFFFAOYSA-N

>  <alias>  (236) 
None

>  <ref_mols>  (236) 
Z0852a,Z0772a

>  <subsites>  (236) 
1 - Z4590/B/203/1

>  <distance_score>  (236) 
0.996594

>  <HIPPO Compound ID>  (236) 
47401

>  <smiles>  (236) 
C[C@@H](Nc1ccc2ncccc2c1)c1ccccn1

>  <energy_score>  (236) 
-8.101132

$$$$
P61574
     RDKit          3D

 24 27  0  0  0  0  0  0  0  0999 V2000
   -6.6399    3.9591  -20.8483 O   0  0  0  0  0  0  0  0  0  0  0  0
   -5.8225    4.5446  -20.2550 C   0  0  0  0  0  0  0  0  0  0  0  0
   -5.8271    5.0800  -18.8064 N   0  0  0  0  0  0  0  0  0  0  0  0
   -6.7630    4.9308  -17.7934 C   0  0  0  0  0  0  0  0  0  0  0  0
   -8.0893    4.5671  -17.9757 C   0  0  0  0  0  0  0  0  0  0  0  0
   -8.9413    4.5031  -16.8538 C   0  0  0  0  0  0  0  0  0  0  0  0
   -8.4784    4.7297  -15.5488 C   0  0  0  0  0  0  0  0  0  0  0  0
   -9.2696    4.6308  -14.4583 N   0  0  0  0  0  0  0  0  0  0  0  0
   -8.6850    4.6678  -13.2329 C   0  0  0  0  0  0  0  0  0  0  0  0
   -7.3614    4.9605  -13.0077 C   0  0  0  0  0  0  0  0  0  0  0  0
   -6.5741    5.1889  -14.1175 C   0  0  0  0  0  0  0  0  0  0  0  0
   -7.1182    5.0488  -15.3988 C   0  0  0  0  0  0  0  0  0  0  0  0
   -6.2921    5.1957  -16.5108 C   0  0  0  0  0  0  0  0  0  0  0  0
   -4.5671    4.9617  -20.9139 C   0  0  0  0  0  0  0  0  0  0  0  0
   -3.3149    4.7552  -20.3446 C   0  0  0  0  0  0  0  0  0  0  0  0
   -2.1792    5.1559  -21.0488 C   0  0  0  0  0  0  0  0  0  0  0  0
   -2.3082    5.7823  -22.2911 C   0  0  0  0  0  0  0  0  0  0  0  0
   -1.2072    6.2174  -23.0024 N   0  0  0  0  0  0  0  0  0  0  0  0
   -1.4074    6.7671  -24.3461 C   0  0  0  0  0  0  0  0  0  0  0  0
   -0.1417    6.3819  -25.1158 C   0  0  0  0  0  0  0  0  0  0  0  0
    0.8914    6.1529  -24.0269 C   0  0  0  0  0  0  0  0  0  0  0  0
    0.0641    5.5060  -22.9224 C   0  0  0  0  0  0  0  0  0  0  0  0
   -3.5378    6.0275  -22.8041 N   0  0  0  0  0  0  0  0  0  0  0  0
   -4.6316    5.6057  -22.1277 C   0  0  0  0  0  0  0  0  0  0  0  0
  1  2  2  0
  2  3  1  0
  3  4  1  0
  4  5  2  0
  5  6  1  0
  6  7  2  0
  7  8  1  0
  8  9  2  0
  9 10  1  0
 10 11  2  0
 11 12  1  0
 12 13  2  0
  2 14  1  0
 14 15  2  0
 15 16  1  0
 16 17  2  0
 17 18  1  0
 18 19  1  0
 19 20  1  0
 20 21  1  0
 21 22  1  0
 17 23  1  0
 23 24  2  0
 13  4  1  0
 24 14  1  0
 12  7  1  0
 22 18  1  0
M  END
>  <tags>  (237) 
openbind_xx01zvns2b_c1_knitwork_impure,fragmenstein_placed,openbind_xx01zvns2b_c1_scaffolds_chemok_bbok,BulkDock Fragalysis export,openbind_xx01zvns2b_c1_scaffolds

>  <placement_batch>  (237) 
openbind_xx01zvns2b_c1_knitwork_impure

>  <inspiration_score>  (237) 
None

>  <name>  (237) 
P61574

>  <HIPPO Pose ID>  (237) 
61574

>  <ref_pdb>  (237) 
Z0852a

>  <inchikey>  (237) 
LVVBNJVNNGHIHH-UHFFFAOYSA-N

>  <alias>  (237) 
None

>  <ref_mols>  (237) 
Z0852a,Z0772a

>  <subsites>  (237) 
1 - Z4590/B/203/1

>  <distance_score>  (237) 
0.91434

>  <HIPPO Compound ID>  (237) 
47407

>  <smiles>  (237) 
O=C(Nc1ccc2ncccc2c1)c1ccc(N2CCCC2)nc1

>  <energy_score>  (237) 
-8.204673

$$$$
P61575
     RDKit          3D

 24 27  0  0  0  0  0  0  0  0999 V2000
   -6.5058    4.1365  -20.6729 O   0  0  0  0  0  0  0  0  0  0  0  0
   -5.7416    4.7366  -20.0256 C   0  0  0  0  0  0  0  0  0  0  0  0
   -5.8342    5.2249  -18.5714 N   0  0  0  0  0  0  0  0  0  0  0  0
   -6.8040    5.0087  -17.6109 C   0  0  0  0  0  0  0  0  0  0  0  0
   -8.1245    4.6593  -17.8308 C   0  0  0  0  0  0  0  0  0  0  0  0
   -8.9864    4.5586  -16.7178 C   0  0  0  0  0  0  0  0  0  0  0  0
   -8.5369    4.7376  -15.3955 C   0  0  0  0  0  0  0  0  0  0  0  0
   -9.3325    4.6258  -14.3083 N   0  0  0  0  0  0  0  0  0  0  0  0
   -8.7423    4.6017  -13.0818 C   0  0  0  0  0  0  0  0  0  0  0  0
   -7.4148    4.8575  -12.8402 C   0  0  0  0  0  0  0  0  0  0  0  0
   -6.6249    5.1115  -13.9380 C   0  0  0  0  0  0  0  0  0  0  0  0
   -7.1749    5.0264  -15.2199 C   0  0  0  0  0  0  0  0  0  0  0  0
   -6.3426    5.2042  -16.3125 C   0  0  0  0  0  0  0  0  0  0  0  0
   -4.4221    5.1655  -20.6217 C   0  0  0  0  0  0  0  0  0  0  0  0
   -4.3492    5.2098  -22.0124 C   0  0  0  0  0  0  0  0  0  0  0  0
   -3.1371    5.4525  -22.6479 C   0  0  0  0  0  0  0  0  0  0  0  0
   -2.0265    5.6678  -21.8607 C   0  0  0  0  0  0  0  0  0  0  0  0
   -2.0751    5.7393  -20.5167 N   0  0  0  0  0  0  0  0  0  0  0  0
   -3.2634    5.5113  -19.9017 C   0  0  0  0  0  0  0  0  0  0  0  0
   -3.3172    5.7583  -18.5068 N   0  0  0  0  0  0  0  0  0  0  0  0
   -2.4287    4.8320  -17.7781 C   0  0  0  0  0  0  0  0  0  0  0  0
   -1.8584    5.6800  -16.6457 C   0  0  0  0  0  0  0  0  0  0  0  0
   -1.6307    7.0083  -17.3360 C   0  0  0  0  0  0  0  0  0  0  0  0
   -2.8770    7.1462  -18.2003 C   0  0  0  0  0  0  0  0  0  0  0  0
  1  2  2  0
  2  3  1  0
  3  4  1  0
  4  5  2  0
  5  6  1  0
  6  7  2  0
  7  8  1  0
  8  9  2  0
  9 10  1  0
 10 11  2  0
 11 12  1  0
 12 13  2  0
  2 14  1  0
 14 15  2  0
 15 16  1  0
 16 17  2  0
 17 18  1  0
 18 19  2  0
 19 20  1  0
 20 21  1  0
 21 22  1  0
 22 23  1  0
 23 24  1  0
 13  4  1  0
 19 14  1  0
 24 20  1  0
 12  7  1  0
M  END
>  <tags>  (238) 
openbind_xx01zvns2b_c1_knitwork_impure,fragmenstein_placed,openbind_xx01zvns2b_c1_scaffolds_chemok_bbok,BulkDock Fragalysis export,openbind_xx01zvns2b_c1_scaffolds

>  <placement_batch>  (238) 
openbind_xx01zvns2b_c1_knitwork_impure

>  <inspiration_score>  (238) 
None

>  <name>  (238) 
P61575

>  <HIPPO Pose ID>  (238) 
61575

>  <ref_pdb>  (238) 
Z0852a

>  <inchikey>  (238) 
ULVOATAIVSYTCZ-UHFFFAOYSA-N

>  <alias>  (238) 
None

>  <ref_mols>  (238) 
Z0852a,Z0772a

>  <subsites>  (238) 
1 - Z4590/B/203/1

>  <distance_score>  (238) 
0.912766

>  <HIPPO Compound ID>  (238) 
47409

>  <smiles>  (238) 
O=C(Nc1ccc2ncccc2c1)c1cccnc1N1CCCC1

>  <energy_score>  (238) 
-34.127903

$$$$
P61577
     RDKit          3D

 22 24  0  0  0  0  0  0  0  0999 V2000
    1.9073    6.1627  -20.4310 C   0  0  0  0  0  0  0  0  0  0  0  0
    0.5070    6.1235  -21.0190 C   0  0  0  0  0  0  0  0  0  0  0  0
   -0.6643    5.4829  -19.7784 S   0  0  0  0  0  0  0  0  0  0  0  0
   -2.1616    5.4346  -20.7443 C   0  0  0  0  0  0  0  0  0  0  0  0
   -3.2977    4.8979  -20.1686 C   0  0  0  0  0  0  0  0  0  0  0  0
   -4.5071    4.9991  -20.8638 C   0  0  0  0  0  0  0  0  0  0  0  0
   -5.7824    4.5512  -20.2365 C   0  0  0  0  0  0  0  0  0  0  0  0
   -6.5762    3.9487  -20.8454 O   0  0  0  0  0  0  0  0  0  0  0  0
   -5.7856    5.0045  -18.7581 N   0  0  0  0  0  0  0  0  0  0  0  0
   -6.7678    4.8979  -17.7852 C   0  0  0  0  0  0  0  0  0  0  0  0
   -8.0942    4.5517  -17.9825 C   0  0  0  0  0  0  0  0  0  0  0  0
   -8.9569    4.5038  -16.8655 C   0  0  0  0  0  0  0  0  0  0  0  0
   -8.5044    4.7293  -15.5534 C   0  0  0  0  0  0  0  0  0  0  0  0
   -9.2989    4.6373  -14.4640 N   0  0  0  0  0  0  0  0  0  0  0  0
   -8.7158    4.6689  -13.2364 C   0  0  0  0  0  0  0  0  0  0  0  0
   -7.3924    4.9549  -13.0044 C   0  0  0  0  0  0  0  0  0  0  0  0
   -6.6019    5.1777  -14.1110 C   0  0  0  0  0  0  0  0  0  0  0  0
   -7.1444    5.0376  -15.3928 C   0  0  0  0  0  0  0  0  0  0  0  0
   -6.3102    5.1681  -16.4969 C   0  0  0  0  0  0  0  0  0  0  0  0
   -4.5419    5.5752  -22.1229 C   0  0  0  0  0  0  0  0  0  0  0  0
   -3.3488    6.0409  -22.6354 C   0  0  0  0  0  0  0  0  0  0  0  0
   -2.1750    6.0045  -21.9665 N   0  0  0  0  0  0  0  0  0  0  0  0
  1  2  1  0
  2  3  1  0
  3  4  1  0
  4  5  2  0
  5  6  1  0
  6  7  1  0
  7  8  2  0
  7  9  1  0
  9 10  1  0
 10 11  2  0
 11 12  1  0
 12 13  2  0
 13 14  1  0
 14 15  2  0
 15 16  1  0
 16 17  2  0
 17 18  1  0
 18 19  2  0
  6 20  2  0
 20 21  1  0
 21 22  2  0
 22  4  1  0
 19 10  1  0
 18 13  1  0
M  END
>  <tags>  (239) 
openbind_xx01zvns2b_c1_knitwork_impure,fragmenstein_placed,openbind_xx01zvns2b_c1_scaffolds_chemok_bbok,BulkDock Fragalysis export,openbind_xx01zvns2b_c1_scaffolds

>  <placement_batch>  (239) 
openbind_xx01zvns2b_c1_knitwork_impure

>  <inspiration_score>  (239) 
None

>  <name>  (239) 
P61577

>  <HIPPO Pose ID>  (239) 
61577

>  <ref_pdb>  (239) 
Z0852a

>  <inchikey>  (239) 
OKMHMOQQMMQGJE-UHFFFAOYSA-N

>  <alias>  (239) 
None

>  <ref_mols>  (239) 
Z0852a,Z0772a

>  <subsites>  (239) 
1 - Z4590/B/203/1

>  <distance_score>  (239) 
0.882135

>  <HIPPO Compound ID>  (239) 
47410

>  <smiles>  (239) 
CCSc1cc(C(=O)Nc2ccc3ncccc3c2)ccn1

>  <energy_score>  (239) 
-17.538756

$$$$
P61586
     RDKit          3D

 23 26  0  0  0  0  0  0  0  0999 V2000
   -7.2243    4.8143  -13.1783 C   0  0  0  0  0  0  0  0  0  0  0  0
   -8.5791    4.5822  -13.2514 C   0  0  0  0  0  0  0  0  0  0  0  0
   -9.2940    4.6106  -14.4032 N   0  0  0  0  0  0  0  0  0  0  0  0
   -8.6261    4.7533  -15.5686 C   0  0  0  0  0  0  0  0  0  0  0  0
   -9.2633    4.6224  -16.8033 C   0  0  0  0  0  0  0  0  0  0  0  0
   -8.5987    4.8552  -18.0150 C   0  0  0  0  0  0  0  0  0  0  0  0
   -7.2690    5.2640  -18.0060 C   0  0  0  0  0  0  0  0  0  0  0  0
   -6.5923    5.5970  -19.1946 N   0  0  0  0  0  0  0  0  0  0  0  0
   -5.7283    4.5207  -19.6571 C   0  0  0  0  0  0  0  0  0  0  0  0
   -4.4153    5.0014  -20.1487 C   0  0  0  0  0  0  0  0  0  0  0  0
   -3.1607    4.9680  -19.5819 C   0  0  0  0  0  0  0  0  0  0  0  0
   -2.2851    5.5592  -20.5316 C   0  0  0  0  0  0  0  0  0  0  0  0
   -0.8458    5.8053  -20.4042 C   0  0  0  0  0  0  0  0  0  0  0  0
   -0.2172    5.7906  -19.1563 C   0  0  0  0  0  0  0  0  0  0  0  0
    1.1447    6.0444  -19.0939 C   0  0  0  0  0  0  0  0  0  0  0  0
    1.9145    6.3095  -20.1690 N   0  0  0  0  0  0  0  0  0  0  0  0
    1.2876    6.3108  -21.3660 C   0  0  0  0  0  0  0  0  0  0  0  0
   -0.0681    6.0768  -21.5320 C   0  0  0  0  0  0  0  0  0  0  0  0
   -2.9704    5.9157  -21.6327 N   0  0  0  0  0  0  0  0  0  0  0  0
   -4.2482    5.6065  -21.3558 N   0  0  0  0  0  0  0  0  0  0  0  0
   -6.5884    5.3015  -16.7890 C   0  0  0  0  0  0  0  0  0  0  0  0
   -7.2507    5.0419  -15.5814 C   0  0  0  0  0  0  0  0  0  0  0  0
   -6.5584    5.0758  -14.3644 C   0  0  0  0  0  0  0  0  0  0  0  0
  1  2  2  0
  2  3  1  0
  3  4  2  0
  4  5  1  0
  5  6  2  0
  6  7  1  0
  7  8  1  0
  8  9  1  0
  9 10  1  0
 10 11  2  0
 11 12  1  0
 12 13  1  0
 13 14  2  0
 14 15  1  0
 15 16  2  0
 16 17  1  0
 17 18  2  0
 12 19  2  0
 19 20  1  0
  7 21  2  0
 21 22  1  0
 22 23  2  0
 23  1  1  0
 22  4  1  0
 20 10  1  0
 18 13  1  0
M  END
>  <tags>  (240) 
openbind_xx01zvns2b_c1_knitwork_impure,BulkDock Fragalysis export,fragmenstein_placed,openbind_xx01zvns2b_c1_scaffolds

>  <placement_batch>  (240) 
openbind_xx01zvns2b_c1_knitwork_impure

>  <inspiration_score>  (240) 
None

>  <name>  (240) 
P61586

>  <HIPPO Pose ID>  (240) 
61586

>  <ref_pdb>  (240) 
Z0852a

>  <inchikey>  (240) 
JMCIBHNDUCBGCE-UHFFFAOYSA-N

>  <alias>  (240) 
None

>  <ref_mols>  (240) 
Z0852a,Z0772a

>  <subsites>  (240) 
1 - Z4590/B/203/1

>  <distance_score>  (240) 
0.992632

>  <HIPPO Compound ID>  (240) 
47423

>  <smiles>  (240) 
c1cnc2ccc(NCc3cc(-c4ccncc4)n[nH]3)cc2c1

>  <energy_score>  (240) 
-13.516813

$$$$
P61623
     RDKit          3D

 21 24  0  0  0  0  0  0  0  0999 V2000
   -7.8813    2.8990  -11.6666 O   0  0  0  0  0  0  0  0  0  0  0  0
   -7.8524    4.0339  -11.4127 C   0  0  0  0  0  0  0  0  0  0  0  0
   -7.5748    5.2494  -12.3126 N   0  0  0  0  0  0  0  0  0  0  0  0
   -7.3661    5.3321  -13.7435 C   0  0  1  0  0  0  0  0  0  0  0  0
   -6.4023    6.4081  -14.2712 C   0  0  0  0  0  0  0  0  0  0  0  0
   -5.7967    5.3319  -15.2115 C   0  0  2  0  0  0  0  0  0  0  0  0
   -6.3938    5.2716  -16.6571 C   0  0  0  0  0  0  0  0  0  0  0  0
   -5.8018    5.8200  -17.6966 N   0  0  0  0  0  0  0  0  0  0  0  0
   -6.5689    5.4635  -18.7766 C   0  0  0  0  0  0  0  0  0  0  0  0
   -7.6627    4.7335  -18.3810 C   0  0  0  0  0  0  0  0  0  0  0  0
   -7.5343    4.6053  -17.0299 N   0  0  0  0  0  0  0  0  0  0  0  0
   -6.3420    4.2747  -14.2350 C   0  0  0  0  0  0  0  0  0  0  0  0
   -8.0916    4.4671  -10.0249 C   0  0  0  0  0  0  0  0  0  0  0  0
   -8.0707    5.7608   -9.6256 N   0  0  0  0  0  0  0  0  0  0  0  0
   -8.3610    5.7386   -8.2552 O   0  0  0  0  0  0  0  0  0  0  0  0
   -8.5491    4.4576   -7.8814 C   0  0  0  0  0  0  0  0  0  0  0  0
   -8.3828    3.6142   -8.9389 C   0  0  0  0  0  0  0  0  0  0  0  0
   -8.5604    2.1485   -8.8539 C   0  0  0  0  0  0  0  0  0  0  0  0
   -8.6458    1.7328   -7.4384 N   0  0  0  0  0  0  0  0  0  0  0  0
   -9.4711    2.6129   -6.6010 C   0  0  0  0  0  0  0  0  0  0  0  0
   -8.9262    4.0608   -6.5144 C   0  0  0  0  0  0  0  0  0  0  0  0
  1  2  2  0
  2  3  1  0
  4  3  1  1
  4  5  1  0
  5  6  1  0
  6  7  1  6
  7  8  2  0
  8  9  1  0
  9 10  2  0
 10 11  1  0
  6 12  1  0
  2 13  1  0
 13 14  2  0
 14 15  1  0
 15 16  1  0
 16 17  2  0
 17 18  1  0
 18 19  1  0
 19 20  1  0
 20 21  1  0
 12  4  1  0
 17 13  1  0
 11  7  1  0
 21 16  1  0
M  END
>  <tags>  (241) 
openbind_xx01zvns2b_c1_knitwork_impure,BulkDock Fragalysis export,fragmenstein_placed,openbind_xx01zvns2b_c1_scaffolds

>  <placement_batch>  (241) 
openbind_xx01zvns2b_c1_knitwork_impure

>  <inspiration_score>  (241) 
None

>  <name>  (241) 
P61623

>  <HIPPO Pose ID>  (241) 
61623

>  <ref_pdb>  (241) 
Z0559a

>  <inchikey>  (241) 
DNTVHYORFSHSOK-UHFFFAOYSA-N

>  <alias>  (241) 
None

>  <ref_mols>  (241) 
Z0559a,Z0969a

>  <subsites>  (241) 
1 - Z4590/B/203/1

>  <distance_score>  (241) 
0.766336

>  <HIPPO Compound ID>  (241) 
68974

>  <smiles>  (241) 
O=C(N[C@H]1C[C@H](c2ncc[nH]2)C1)c1noc2c1CNCC2

>  <energy_score>  (241) 
-30.971011

$$$$
P61648
     RDKit          3D

 15 17  0  0  0  0  0  0  0  0999 V2000
   -9.1133    4.1416  -17.3550 C   0  0  0  0  0  0  0  0  0  0  0  0
   -8.3087    4.3277  -18.4540 C   0  0  0  0  0  0  0  0  0  0  0  0
   -7.0580    4.7753  -17.9594 C   0  0  0  0  0  0  0  0  0  0  0  0
   -5.8368    5.1888  -18.5189 C   0  0  0  0  0  0  0  0  0  0  0  0
   -4.8242    5.6100  -17.6431 C   0  0  0  0  0  0  0  0  0  0  0  0
   -3.4919    6.1436  -18.1228 C   0  0  2  0  0  0  0  0  0  0  0  0
   -3.6577    7.3767  -19.0281 C   0  0  0  0  0  0  0  0  0  0  0  0
   -2.2977    7.8597  -19.5288 C   0  0  0  0  0  0  0  0  0  0  0  0
   -1.5116    6.7248  -20.1830 C   0  0  0  0  0  0  0  0  0  0  0  0
   -1.3366    5.5819  -19.2805 N   0  0  0  0  0  0  0  0  0  0  0  0
   -2.6462    5.0738  -18.8327 C   0  0  0  0  0  0  0  0  0  0  0  0
   -5.0847    5.5526  -16.2707 C   0  0  0  0  0  0  0  0  0  0  0  0
   -6.2367    5.1644  -15.6834 N   0  0  0  0  0  0  0  0  0  0  0  0
   -7.1766    4.7934  -16.5714 C   0  0  0  0  0  0  0  0  0  0  0  0
   -8.4326    4.4065  -16.2084 O   0  0  0  0  0  0  0  0  0  0  0  0
  1  2  2  0
  2  3  1  0
  3  4  2  0
  4  5  1  0
  6  5  1  6
  6  7  1  0
  7  8  1  0
  8  9  1  0
  9 10  1  0
 10 11  1  0
  5 12  2  0
 12 13  1  0
 13 14  2  0
 14 15  1  0
 15  1  1  0
 14  3  1  0
 11  6  1  0
M  END
>  <tags>  (242) 
openbind_xx01zvns2b_c1_knitwork_impure,fragmenstein_placed,openbind_xx01zvns2b_c1_scaffolds_chemok_bbok,BulkDock Fragalysis export,openbind_xx01zvns2b_c1_scaffolds

>  <placement_batch>  (242) 
openbind_xx01zvns2b_c1_knitwork_impure

>  <inspiration_score>  (242) 
None

>  <name>  (242) 
P61648

>  <HIPPO Pose ID>  (242) 
61648

>  <ref_pdb>  (242) 
Z1674a

>  <inchikey>  (242) 
PNVORARYCJUFRO-UHFFFAOYSA-N

>  <alias>  (242) 
None

>  <ref_mols>  (242) 
Z1674a,Z1729a

>  <subsites>  (242) 
1 - Z4590/B/203/1

>  <distance_score>  (242) 
0.843443

>  <HIPPO Compound ID>  (242) 
59466

>  <smiles>  (242) 
c1cc2cc([C@@H]3CCCNC3)cnc2o1

>  <energy_score>  (242) 
-28.455131

$$$$
P61652
     RDKit          3D

 18 19  0  0  0  0  0  0  0  0999 V2000
   -9.3665    3.9070  -18.3043 C   0  0  0  0  0  0  0  0  0  0  0  0
   -8.1794    4.3651  -17.5273 C   0  0  0  0  0  0  0  0  0  0  0  0
   -6.9979    4.6543  -18.1977 C   0  0  0  0  0  0  0  0  0  0  0  0
   -5.9245    5.0936  -17.4560 C   0  0  0  0  0  0  0  0  0  0  0  0
   -5.9490    5.2512  -16.1151 N   0  0  0  0  0  0  0  0  0  0  0  0
   -7.0851    4.9088  -15.4451 C   0  0  0  0  0  0  0  0  0  0  0  0
   -7.0759    5.1094  -13.9143 C   0  0  2  0  0  0  0  0  0  0  0  0
   -5.6862    4.7687  -13.3622 C   0  0  0  0  0  0  0  0  0  0  0  0
   -8.1799    4.4146  -13.2159 N   0  0  0  0  0  0  0  0  0  0  0  0
   -8.2063    4.3712  -11.7394 C   0  0  1  0  0  0  0  0  0  0  0  0
   -7.4510    3.1749  -11.1450 C   0  0  0  0  0  0  0  0  0  0  0  0
   -8.0408    2.6842   -9.8197 C   0  0  0  0  0  0  0  0  0  0  0  0
   -8.5355    3.6590   -8.8654 N   0  0  0  0  0  0  0  0  0  0  0  0
   -8.1514    4.9370   -8.6346 C   0  0  0  0  0  0  0  0  0  0  0  0
   -8.5122    5.5112   -7.6062 O   0  0  0  0  0  0  0  0  0  0  0  0
   -7.2918    5.6266   -9.6536 C   0  0  0  0  0  0  0  0  0  0  0  0
   -7.9275    5.7191  -11.0376 C   0  0  0  0  0  0  0  0  0  0  0  0
   -8.2215    4.4838  -16.1336 C   0  0  0  0  0  0  0  0  0  0  0  0
  1  2  1  0
  2  3  2  0
  3  4  1  0
  4  5  2  0
  5  6  1  0
  6  7  1  0
  7  8  1  1
  7  9  1  0
 10  9  1  6
 10 11  1  0
 11 12  1  0
 12 13  1  0
 13 14  1  0
 14 15  2  0
 14 16  1  0
 16 17  1  0
  6 18  2  0
 18  2  1  0
 17 10  1  0
M  END
>  <tags>  (243) 
openbind_xx01zvns2b_c1_knitwork_impure,fragmenstein_placed,openbind_xx01zvns2b_c1_scaffolds_chemok_bbok,BulkDock Fragalysis export,openbind_xx01zvns2b_c1_scaffolds

>  <placement_batch>  (243) 
openbind_xx01zvns2b_c1_knitwork_impure

>  <inspiration_score>  (243) 
None

>  <name>  (243) 
P61652

>  <HIPPO Pose ID>  (243) 
61652

>  <ref_pdb>  (243) 
Z1274a

>  <inchikey>  (243) 
ZCSDZXBRYFMLFU-UHFFFAOYSA-N

>  <alias>  (243) 
None

>  <ref_mols>  (243) 
Z0673a,Z1274a

>  <subsites>  (243) 
1 - Z4590/B/203/1

>  <distance_score>  (243) 
0.769419

>  <HIPPO Compound ID>  (243) 
62285

>  <smiles>  (243) 
Cc1ccnc([C@H](C)N[C@H]2CCNC(=O)CC2)c1

>  <energy_score>  (243) 
-24.758453

$$$$
P61745
     RDKit          3D

 11 12  0  0  0  0  0  0  0  0999 V2000
   -6.9123    4.5206  -14.7357 C   0  0  0  0  0  0  0  0  0  0  0  0
   -5.9004    4.9373  -15.5757 C   0  0  0  0  0  0  0  0  0  0  0  0
   -6.4109    5.3178  -16.8666 C   0  0  0  0  0  0  0  0  0  0  0  0
   -5.5782    5.7670  -17.8589 N   0  0  0  0  0  0  0  0  0  0  0  0
   -6.2123    6.2745  -19.0999 C   0  0  0  0  0  0  0  0  0  0  0  0
   -5.1766    7.0814  -19.9223 C   0  0  0  0  0  0  0  0  0  0  0  0
   -3.8964    6.3863  -20.2043 N   0  0  0  0  0  0  0  0  0  0  0  0
   -3.3807    5.7731  -18.9721 C   0  0  0  0  0  0  0  0  0  0  0  0
   -4.4178    4.9309  -18.2031 C   0  0  0  0  0  0  0  0  0  0  0  0
   -7.7363    5.2591  -16.9658 N   0  0  0  0  0  0  0  0  0  0  0  0
   -8.3867    4.6452  -15.5803 S   0  0  0  0  0  0  0  0  0  0  0  0
  1  2  2  0
  2  3  1  0
  3  4  1  0
  4  5  1  0
  5  6  1  0
  6  7  1  0
  7  8  1  0
  8  9  1  0
  3 10  2  0
 10 11  1  0
 11  1  1  0
  9  4  1  0
M  END
>  <tags>  (244) 
openbind_xx01zvns2b_c1_knitwork_impure,fragmenstein_placed,openbind_xx01zvns2b_c1_scaffolds_chemok_bbok,BulkDock Fragalysis export,openbind_xx01zvns2b_c1_scaffolds

>  <placement_batch>  (244) 
openbind_xx01zvns2b_c1_knitwork_impure

>  <inspiration_score>  (244) 
None

>  <name>  (244) 
P61745

>  <HIPPO Pose ID>  (244) 
61745

>  <ref_pdb>  (244) 
Z0990a

>  <inchikey>  (244) 
MHNHXXDHQTVCBW-UHFFFAOYSA-N

>  <alias>  (244) 
None

>  <ref_mols>  (244) 
Z1495a,Z0465a,Z0990a,Z0673b,Z1719a

>  <subsites>  (244) 
1 - Z4590/B/203/1

>  <distance_score>  (244) 
0.987912

>  <HIPPO Compound ID>  (244) 
62482

>  <smiles>  (244) 
c1cc(N2CCNCC2)ns1

>  <energy_score>  (244) 
-32.791273

$$$$
P61810
     RDKit          3D

 15 17  0  0  0  0  0  0  0  0999 V2000
   -4.3756    7.2125  -19.3046 C   0  0  0  0  0  0  0  0  0  0  0  0
   -5.6811    6.9709  -19.1894 C   0  0  0  0  0  0  0  0  0  0  0  0
   -5.9436    5.4981  -19.1767 C   0  0  2  0  0  0  0  0  0  0  0  0
   -6.6860    5.0283  -17.9389 C   0  0  0  0  0  0  0  0  0  0  0  0
   -8.0325    4.6236  -18.1133 C   0  0  0  0  0  0  0  0  0  0  0  0
   -8.8388    4.2999  -17.0311 C   0  0  0  0  0  0  0  0  0  0  0  0
   -8.3060    4.3552  -15.7537 C   0  0  0  0  0  0  0  0  0  0  0  0
   -6.9705    4.7317  -15.5567 C   0  0  0  0  0  0  0  0  0  0  0  0
   -6.4452    4.7705  -14.2592 C   0  0  0  0  0  0  0  0  0  0  0  0
   -5.1298    5.1555  -14.0541 C   0  0  0  0  0  0  0  0  0  0  0  0
   -4.3853    5.4984  -15.1606 C   0  0  0  0  0  0  0  0  0  0  0  0
   -4.8618    5.4804  -16.4218 N   0  0  0  0  0  0  0  0  0  0  0  0
   -6.1357    5.0830  -16.6469 C   0  0  0  0  0  0  0  0  0  0  0  0
   -4.6371    4.8620  -19.4815 N   0  0  0  0  0  0  0  0  0  0  0  0
   -3.6291    5.9313  -19.3774 C   0  0  0  0  0  0  0  0  0  0  0  0
  1  2  2  0
  2  3  1  0
  3  4  1  1
  4  5  2  0
  5  6  1  0
  6  7  2  0
  7  8  1  0
  8  9  2  0
  9 10  1  0
 10 11  2  0
 11 12  1  0
 12 13  2  0
  3 14  1  0
 14 15  1  0
 15  1  1  0
 13  4  1  0
 13  8  1  0
M  END
>  <tags>  (245) 
openbind_xx01zvns2b_c1_knitwork_impure,BulkDock Fragalysis export,fragmenstein_placed,openbind_xx01zvns2b_c1_scaffolds

>  <placement_batch>  (245) 
openbind_xx01zvns2b_c1_knitwork_impure

>  <inspiration_score>  (245) 
None

>  <name>  (245) 
P61810

>  <HIPPO Pose ID>  (245) 
61810

>  <ref_pdb>  (245) 
Z1716a

>  <inchikey>  (245) 
MXFWKGFEGWVLME-UHFFFAOYSA-N

>  <alias>  (245) 
None

>  <ref_mols>  (245) 
Z1716a,Z0819a

>  <subsites>  (245) 
1 - Z4590/B/203/1

>  <distance_score>  (245) 
0.907979

>  <HIPPO Compound ID>  (245) 
58258

>  <smiles>  (245) 
C1=C[C@H](c2cccc3cccnc23)NC1

>  <energy_score>  (245) 
-1.954792

$$$$
P61930
     RDKit          3D

 14 16  0  0  0  0  0  0  0  0999 V2000
   -8.9652    4.1228  -15.8012 C   0  0  0  0  0  0  0  0  0  0  0  0
   -9.0301    4.0349  -17.1912 C   0  0  0  0  0  0  0  0  0  0  0  0
   -7.9671    4.4607  -17.9897 C   0  0  0  0  0  0  0  0  0  0  0  0
   -6.8550    4.9990  -17.3331 C   0  0  0  0  0  0  0  0  0  0  0  0
   -6.7784    5.1021  -15.9450 C   0  0  0  0  0  0  0  0  0  0  0  0
   -7.8428    4.6492  -15.1584 C   0  0  0  0  0  0  0  0  0  0  0  0
   -5.6012    5.6848  -15.5512 N   0  0  0  0  0  0  0  0  0  0  0  0
   -4.9573    5.9300  -16.6665 C   0  0  0  0  0  0  0  0  0  0  0  0
   -5.6628    5.5227  -17.7678 N   0  0  0  0  0  0  0  0  0  0  0  0
   -5.2035    5.6125  -19.1410 C   0  0  1  0  0  0  0  0  0  0  0  0
   -5.2301    7.0413  -19.6931 C   0  0  0  0  0  0  0  0  0  0  0  0
   -3.8203    7.2880  -20.2074 C   0  0  0  0  0  0  0  0  0  0  0  0
   -2.9867    6.4189  -19.3883 N   0  0  0  0  0  0  0  0  0  0  0  0
   -3.7417    5.1714  -19.2912 C   0  0  0  0  0  0  0  0  0  0  0  0
  1  2  2  0
  2  3  1  0
  3  4  2  0
  4  5  1  0
  5  6  2  0
  5  7  1  0
  7  8  2  0
  8  9  1  0
 10  9  1  1
 10 11  1  0
 11 12  1  0
 12 13  1  0
 13 14  1  0
  6  1  1  0
 14 10  1  0
  9  4  1  0
M  END
>  <tags>  (246) 
openbind_xx01zvns2b_c1_knitwork_impure,fragmenstein_placed,openbind_xx01zvns2b_c1_scaffolds_chemok_bbok,BulkDock Fragalysis export,openbind_xx01zvns2b_c1_scaffolds

>  <placement_batch>  (246) 
openbind_xx01zvns2b_c1_knitwork_impure

>  <inspiration_score>  (246) 
None

>  <name>  (246) 
P61930

>  <HIPPO Pose ID>  (246) 
61930

>  <ref_pdb>  (246) 
Z3476a

>  <inchikey>  (246) 
PPXWOFPOUUYDNQ-UHFFFAOYSA-N

>  <alias>  (246) 
None

>  <ref_mols>  (246) 
Z0917a,Z3476a

>  <subsites>  (246) 
1 - Z4590/B/203/1

>  <distance_score>  (246) 
0.886035

>  <HIPPO Compound ID>  (246) 
58511

>  <smiles>  (246) 
c1ccc2c(c1)ncn2[C@H]1CCNC1

>  <energy_score>  (246) 
-15.499369

$$$$
P61948
     RDKit          3D

 16 17  0  0  0  0  0  0  0  0999 V2000
   -9.0273    4.0281  -17.1752 C   0  0  0  0  0  0  0  0  0  0  0  0
   -8.2819    4.8016  -16.0981 C   0  0  0  0  0  0  0  0  0  0  0  0
   -6.8374    5.0248  -16.5162 C   0  0  0  0  0  0  0  0  0  0  0  0
   -8.3537    4.0449  -14.8828 O   0  0  0  0  0  0  0  0  0  0  0  0
   -8.1381    4.7323  -13.7269 C   0  0  0  0  0  0  0  0  0  0  0  0
   -7.8085    5.8446  -13.6637 O   0  0  0  0  0  0  0  0  0  0  0  0
   -8.4701    3.7355  -12.6234 N   0  0  0  0  0  0  0  0  0  0  0  0
   -8.3820    3.8546  -11.2398 C   0  0  0  0  0  0  0  0  0  0  0  0
   -8.0004    5.0460  -10.6038 C   0  0  0  0  0  0  0  0  0  0  0  0
   -8.0037    5.1400   -9.2053 C   0  0  0  0  0  0  0  0  0  0  0  0
   -8.3872    4.0299   -8.4738 C   0  0  0  0  0  0  0  0  0  0  0  0
   -8.7284    2.8398   -9.1050 C   0  0  0  0  0  0  0  0  0  0  0  0
   -8.7344    2.7368  -10.4816 C   0  0  0  0  0  0  0  0  0  0  0  0
   -9.0439    1.8078   -8.0772 C   0  0  0  0  0  0  0  0  0  0  0  0
   -9.2734    2.5786   -6.8282 N   0  0  0  0  0  0  0  0  0  0  0  0
   -8.5190    3.8427   -6.9998 C   0  0  0  0  0  0  0  0  0  0  0  0
  1  2  1  0
  2  3  1  0
  2  4  1  0
  4  5  1  0
  5  6  2  0
  5  7  1  0
  7  8  1  0
  8  9  2  0
  9 10  1  0
 10 11  2  0
 11 12  1  0
 12 13  2  0
 12 14  1  0
 14 15  1  0
 15 16  1  0
 13  8  1  0
 16 11  1  0
M  END
>  <tags>  (247) 
openbind_xx01zvns2b_c1_knitwork_impure,BulkDock Fragalysis export,fragmenstein_placed,openbind_xx01zvns2b_c1_scaffolds

>  <placement_batch>  (247) 
openbind_xx01zvns2b_c1_knitwork_impure

>  <inspiration_score>  (247) 
None

>  <name>  (247) 
P61948

>  <HIPPO Pose ID>  (247) 
61948

>  <ref_pdb>  (247) 
Z4008a

>  <inchikey>  (247) 
OPPMBSHXLITOSB-UHFFFAOYSA-N

>  <alias>  (247) 
None

>  <ref_mols>  (247) 
Z1046b,Z4008a

>  <subsites>  (247) 
1 - Z4590/B/203/1

>  <distance_score>  (247) 
0.739146

>  <HIPPO Compound ID>  (247) 
69470

>  <smiles>  (247) 
CC(C)OC(=O)Nc1ccc2c(c1)CNC2

>  <energy_score>  (247) 
-39.239181

$$$$
P61963
     RDKit          3D

 15 17  0  0  0  0  0  0  0  0999 V2000
   -8.5941    4.4984  -16.2551 C   0  0  0  0  0  0  0  0  0  0  0  0
   -7.9423    4.4997  -17.4561 N   0  0  0  0  0  0  0  0  0  0  0  0
   -6.7630    5.0638  -17.2566 C   0  0  0  0  0  0  0  0  0  0  0  0
   -5.8023    5.3602  -18.3818 C   0  0  0  0  0  0  0  0  0  0  0  0
   -4.3316    5.0385  -18.1165 C   0  0  0  0  0  0  0  0  0  0  0  0
   -3.4854    5.3469  -19.3504 C   0  0  0  0  0  0  0  0  0  0  0  0
   -3.6136    6.7524  -19.7455 N   0  0  0  0  0  0  0  0  0  0  0  0
   -5.0116    7.0691  -20.0538 C   0  0  0  0  0  0  0  0  0  0  0  0
   -5.9248    6.8115  -18.8562 C   0  0  0  0  0  0  0  0  0  0  0  0
   -6.6263    5.3781  -15.9218 N   0  0  0  0  0  0  0  0  0  0  0  0
   -7.8207    5.1009  -15.2954 C   0  0  0  0  0  0  0  0  0  0  0  0
   -8.0845    5.4234  -13.8710 C   0  0  0  0  0  0  0  0  0  0  0  0
   -7.1384    6.5174  -13.3790 C   0  0  0  0  0  0  0  0  0  0  0  0
   -5.6969    6.1535  -13.7321 C   0  0  0  0  0  0  0  0  0  0  0  0
   -5.4958    5.9764  -15.2438 C   0  0  0  0  0  0  0  0  0  0  0  0
  1  2  1  0
  2  3  2  0
  3  4  1  0
  4  5  1  0
  5  6  1  0
  6  7  1  0
  7  8  1  0
  8  9  1  0
  3 10  1  0
 10 11  1  0
 11 12  1  0
 12 13  1  0
 13 14  1  0
 14 15  1  0
 11  1  2  0
  9  4  1  0
 15 10  1  0
M  END
>  <tags>  (248) 
openbind_xx01zvns2b_c1_knitwork_impure,BulkDock Fragalysis export,fragmenstein_placed,openbind_xx01zvns2b_c1_scaffolds

>  <placement_batch>  (248) 
openbind_xx01zvns2b_c1_knitwork_impure

>  <inspiration_score>  (248) 
None

>  <name>  (248) 
P61963

>  <HIPPO Pose ID>  (248) 
61963

>  <ref_pdb>  (248) 
Z1729a

>  <inchikey>  (248) 
RLLYKIZGPVXAOE-UHFFFAOYSA-N

>  <alias>  (248) 
None

>  <ref_mols>  (248) 
Z0917a,Z1729a

>  <subsites>  (248) 
1 - Z4590/B/203/1

>  <distance_score>  (248) 
0.732963

>  <HIPPO Compound ID>  (248) 
66821

>  <smiles>  (248) 
c1nc(C2CCNCC2)n2c1CCCC2

>  <energy_score>  (248) 
-13.997483

$$$$
P61973
     RDKit          3D

 15 17  0  0  0  0  0  0  0  0999 V2000
   -8.6083    4.4849  -16.2104 C   0  0  0  0  0  0  0  0  0  0  0  0
   -7.9730    4.4789  -17.4200 N   0  0  0  0  0  0  0  0  0  0  0  0
   -6.7935    5.0493  -17.2395 C   0  0  0  0  0  0  0  0  0  0  0  0
   -5.8586    5.3638  -18.3800 C   0  0  2  0  0  0  0  0  0  0  0  0
   -4.3833    5.0362  -18.1554 C   0  0  0  0  0  0  0  0  0  0  0  0
   -3.5837    5.3615  -19.4148 C   0  0  0  0  0  0  0  0  0  0  0  0
   -3.7907    6.8166  -19.8358 C   0  0  0  0  0  0  0  0  0  0  0  0
   -5.2015    7.1646  -20.0138 N   0  0  0  0  0  0  0  0  0  0  0  0
   -5.9915    6.8312  -18.8168 C   0  0  0  0  0  0  0  0  0  0  0  0
   -6.6359    5.3659  -15.9080 N   0  0  0  0  0  0  0  0  0  0  0  0
   -7.8223    5.0937  -15.2649 C   0  0  0  0  0  0  0  0  0  0  0  0
   -8.0662    5.4238  -13.8388 C   0  0  0  0  0  0  0  0  0  0  0  0
   -7.1096    6.5169  -13.3650 C   0  0  0  0  0  0  0  0  0  0  0  0
   -5.6740    6.1453  -13.7351 C   0  0  0  0  0  0  0  0  0  0  0  0
   -5.4941    5.9648  -15.2488 C   0  0  0  0  0  0  0  0  0  0  0  0
  1  2  1  0
  2  3  2  0
  4  3  1  1
  4  5  1  0
  5  6  1  0
  6  7  1  0
  7  8  1  0
  8  9  1  0
  3 10  1  0
 10 11  1  0
 11 12  1  0
 12 13  1  0
 13 14  1  0
 14 15  1  0
 11  1  2  0
  9  4  1  0
 15 10  1  0
M  END
>  <tags>  (249) 
openbind_xx01zvns2b_c1_knitwork_impure,BulkDock Fragalysis export,fragmenstein_placed,openbind_xx01zvns2b_c1_scaffolds

>  <placement_batch>  (249) 
openbind_xx01zvns2b_c1_knitwork_impure

>  <inspiration_score>  (249) 
None

>  <name>  (249) 
P61973

>  <HIPPO Pose ID>  (249) 
61973

>  <ref_pdb>  (249) 
Z1729a

>  <inchikey>  (249) 
VGKITYSVYVEVGT-UHFFFAOYSA-N

>  <alias>  (249) 
None

>  <ref_mols>  (249) 
Z0917a,Z1729a

>  <subsites>  (249) 
1 - Z4590/B/203/1

>  <distance_score>  (249) 
0.720696

>  <HIPPO Compound ID>  (249) 
66837

>  <smiles>  (249) 
c1nc([C@@H]2CCCNC2)n2c1CCCC2

>  <energy_score>  (249) 
-25.119894

$$$$
P61993
     RDKit          3D

 11 12  0  0  0  0  0  0  0  0999 V2000
   -2.2017    7.0547  -20.1213 C   0  0  0  0  0  0  0  0  0  0  0  0
   -1.5183    5.8645  -20.0727 C   0  0  0  0  0  0  0  0  0  0  0  0
   -2.3219    5.0273  -19.3529 N   0  0  0  0  0  0  0  0  0  0  0  0
   -3.4541    5.7230  -18.9993 C   0  0  0  0  0  0  0  0  0  0  0  0
   -4.5497    5.0961  -18.1938 C   0  0  2  0  0  0  0  0  0  0  0  0
   -5.9365    5.5518  -18.6533 C   0  0  0  0  0  0  0  0  0  0  0  0
   -7.0178    4.9552  -17.7566 C   0  0  0  0  0  0  0  0  0  0  0  0
   -6.7398    5.2210  -16.2784 C   0  0  0  0  0  0  0  0  0  0  0  0
   -5.4126    4.7524  -15.8686 N   0  0  0  0  0  0  0  0  0  0  0  0
   -4.3685    5.3795  -16.6934 C   0  0  0  0  0  0  0  0  0  0  0  0
   -3.3898    6.9622  -19.4436 N   0  0  0  0  0  0  0  0  0  0  0  0
  1  2  2  0
  2  3  1  0
  3  4  1  0
  5  4  1  6
  5  6  1  0
  6  7  1  0
  7  8  1  0
  8  9  1  0
  9 10  1  0
  4 11  2  0
 11  1  1  0
 10  5  1  0
M  END
>  <tags>  (250) 
openbind_xx01zvns2b_c1_knitwork_impure,fragmenstein_placed,openbind_xx01zvns2b_c1_scaffolds_chemok_bbok,BulkDock Fragalysis export,openbind_xx01zvns2b_c1_scaffolds

>  <placement_batch>  (250) 
openbind_xx01zvns2b_c1_knitwork_impure

>  <inspiration_score>  (250) 
None

>  <name>  (250) 
P61993

>  <HIPPO Pose ID>  (250) 
61993

>  <ref_pdb>  (250) 
Z1729a

>  <inchikey>  (250) 
HUSFNTXMYQCYAI-UHFFFAOYSA-N

>  <alias>  (250) 
None

>  <ref_mols>  (250) 
Z0917a,Z1729a

>  <subsites>  (250) 
1 - Z4590/B/203/1

>  <distance_score>  (250) 
0.854198

>  <HIPPO Compound ID>  (250) 
348

>  <smiles>  (250) 
c1c[nH]c([C@@H]2CCCNC2)n1

>  <energy_score>  (250) 
-26.133323

$$$$
P62035
     RDKit          3D

 24 27  0  0  0  0  0  0  0  0999 V2000
   -8.7722    6.5300  -14.3039 O   0  0  0  0  0  0  0  0  0  0  0  0
   -8.1605    5.6371  -13.8778 C   0  0  0  0  0  0  0  0  0  0  0  0
   -7.2941    4.5913  -14.5951 N   0  0  0  0  0  0  0  0  0  0  0  0
   -6.9180    4.4778  -15.9868 C   0  0  1  0  0  0  0  0  0  0  0  0
   -8.1480    4.2872  -16.8738 C   0  0  0  0  0  0  0  0  0  0  0  0
   -7.9289    4.7362  -18.3115 C   0  0  0  0  0  0  0  0  0  0  0  0
   -6.4820    4.7437  -18.7815 C   0  0  0  0  0  0  0  0  0  0  0  0
   -5.5539    5.3692  -17.8221 N   0  0  0  0  0  0  0  0  0  0  0  0
   -4.6038    6.1782  -18.4320 C   0  0  0  0  0  0  0  0  0  0  0  0
   -4.1011    7.3436  -17.8509 C   0  0  0  0  0  0  0  0  0  0  0  0
   -3.3212    8.2483  -18.4976 N   0  0  0  0  0  0  0  0  0  0  0  0
   -3.0375    7.9440  -19.7755 C   0  0  0  0  0  0  0  0  0  0  0  0
   -3.4551    6.7711  -20.3561 C   0  0  0  0  0  0  0  0  0  0  0  0
   -4.1948    5.8591  -19.6892 N   0  0  0  0  0  0  0  0  0  0  0  0
   -6.0646    5.6570  -16.4817 C   0  0  0  0  0  0  0  0  0  0  0  0
   -8.1083    5.3855  -12.4033 C   0  0  0  0  0  0  0  0  0  0  0  0
   -7.9582    6.5228  -11.4971 C   0  0  0  0  0  0  0  0  0  0  0  0
   -7.9794    6.3688  -10.1605 C   0  0  0  0  0  0  0  0  0  0  0  0
   -8.1595    5.0733   -9.6058 C   0  0  0  0  0  0  0  0  0  0  0  0
   -8.2119    4.6675   -8.3553 N   0  0  0  0  0  0  0  0  0  0  0  0
   -8.4152    3.3110   -8.4284 C   0  0  0  0  0  0  0  0  0  0  0  0
   -8.5073    2.8987   -9.7357 C   0  0  0  0  0  0  0  0  0  0  0  0
   -8.3263    4.0183  -10.4958 N   0  0  0  0  0  0  0  0  0  0  0  0
   -8.3052    4.1596  -11.8806 C   0  0  0  0  0  0  0  0  0  0  0  0
  1  2  2  0
  2  3  1  0
  4  3  1  1
  4  5  1  0
  5  6  1  0
  6  7  1  0
  7  8  1  0
  8  9  1  0
  9 10  2  0
 10 11  1  0
 11 12  2  0
 12 13  1  0
 13 14  2  0
  8 15  1  0
  2 16  1  0
 16 17  1  0
 17 18  2  0
 18 19  1  0
 19 20  2  0
 20 21  1  0
 21 22  2  0
 22 23  1  0
 23 24  1  0
 15  4  1  0
 24 16  2  0
 14  9  1  0
 23 19  1  0
M  END
>  <tags>  (251) 
openbind_xx01zvns2b_c1_knitwork_impure,BulkDock Fragalysis export,fragmenstein_placed,openbind_xx01zvns2b_c1_scaffolds

>  <placement_batch>  (251) 
openbind_xx01zvns2b_c1_knitwork_impure

>  <inspiration_score>  (251) 
None

>  <name>  (251) 
P62035

>  <HIPPO Pose ID>  (251) 
62035

>  <ref_pdb>  (251) 
Z1495a

>  <inchikey>  (251) 
VZMVFXDUJJEXCG-UHFFFAOYSA-N

>  <alias>  (251) 
None

>  <ref_mols>  (251) 
Z0945a,Z1495a

>  <subsites>  (251) 
1 - Z4590/B/203/1

>  <distance_score>  (251) 
0.95288

>  <HIPPO Compound ID>  (251) 
109811

>  <smiles>  (251) 
O=C(N[C@H]1CCCN(c2cnccn2)C1)c1ccc2nccn2c1

>  <energy_score>  (251) 
-11.404525

$$$$
P62117
     RDKit          3D

 11 12  0  0  0  0  0  0  0  0999 V2000
   -8.9311    4.1507  -16.9831 C   0  0  0  0  0  0  0  0  0  0  0  0
   -8.6582    3.8374  -18.2887 C   0  0  0  0  0  0  0  0  0  0  0  0
   -7.4757    4.0631  -18.8772 N   0  0  0  0  0  0  0  0  0  0  0  0
   -6.5484    4.6877  -18.1299 C   0  0  0  0  0  0  0  0  0  0  0  0
   -5.2583    4.9548  -18.8038 C   0  0  0  0  0  0  0  0  0  0  0  0
   -5.0176    4.8062  -20.1029 N   0  0  0  0  0  0  0  0  0  0  0  0
   -3.6932    5.0644  -20.3843 C   0  0  0  0  0  0  0  0  0  0  0  0
   -2.9148    5.4116  -19.3060 C   0  0  0  0  0  0  0  0  0  0  0  0
   -3.8765    5.4617  -17.8912 S   0  0  0  0  0  0  0  0  0  0  0  0
   -6.7211    5.0644  -16.8415 N   0  0  0  0  0  0  0  0  0  0  0  0
   -7.9085    4.7467  -16.2898 C   0  0  0  0  0  0  0  0  0  0  0  0
  1  2  2  0
  2  3  1  0
  3  4  2  0
  4  5  1  0
  5  6  2  0
  6  7  1  0
  7  8  2  0
  8  9  1  0
  4 10  1  0
 10 11  2  0
 11  1  1  0
  9  5  1  0
M  END
>  <tags>  (252) 
openbind_xx01zvns2b_c1_knitwork_impure,BulkDock Fragalysis export,fragmenstein_placed,openbind_xx01zvns2b_c1_scaffolds

>  <placement_batch>  (252) 
openbind_xx01zvns2b_c1_knitwork_impure

>  <inspiration_score>  (252) 
None

>  <name>  (252) 
P62117

>  <HIPPO Pose ID>  (252) 
62117

>  <ref_pdb>  (252) 
Z1274a

>  <inchikey>  (252) 
AGEUDKAWQBGYIO-UHFFFAOYSA-N

>  <alias>  (252) 
None

>  <ref_mols>  (252) 
Z0875a,Z1274a

>  <subsites>  (252) 
1 - Z4590/B/203/1

>  <distance_score>  (252) 
0.834341

>  <HIPPO Compound ID>  (252) 
10090

>  <smiles>  (252) 
c1cnc(-c2nccs2)nc1

>  <energy_score>  (252) 
-38.95341

$$$$
P62158
     RDKit          3D

 17 19  0  0  0  0  0  0  0  0999 V2000
   -5.6159    5.8700  -15.6451 O   0  0  0  0  0  0  0  0  0  0  0  0
   -6.6262    5.3489  -16.1130 C   0  0  0  0  0  0  0  0  0  0  0  0
   -6.6406    5.0665  -17.5549 C   0  0  0  0  0  0  0  0  0  0  0  0
   -5.4876    5.3026  -18.3170 C   0  0  0  0  0  0  0  0  0  0  0  0
   -5.4338    4.8687  -19.6307 C   0  0  0  0  0  0  0  0  0  0  0  0
   -6.5384    4.2252  -20.1703 C   0  0  0  0  0  0  0  0  0  0  0  0
   -7.7187    4.0670  -19.4269 C   0  0  0  0  0  0  0  0  0  0  0  0
   -7.7714    4.4609  -18.0966 C   0  0  0  0  0  0  0  0  0  0  0  0
   -8.9036    4.1529  -17.3285 N   0  0  0  0  0  0  0  0  0  0  0  0
   -8.8130    4.3528  -16.0548 C   0  0  0  0  0  0  0  0  0  0  0  0
   -7.7302    4.9029  -15.4063 N   0  0  0  0  0  0  0  0  0  0  0  0
   -7.7244    5.0126  -13.9960 C   0  0  0  0  0  0  0  0  0  0  0  0
   -8.0597    3.9052  -13.2227 C   0  0  0  0  0  0  0  0  0  0  0  0
   -8.0918    4.0082  -11.8356 C   0  0  0  0  0  0  0  0  0  0  0  0
   -7.7446    5.2118  -11.2470 C   0  0  0  0  0  0  0  0  0  0  0  0
   -7.3798    6.2564  -12.0769 C   0  0  0  0  0  0  0  0  0  0  0  0
   -7.3734    6.1861  -13.4264 N   0  0  0  0  0  0  0  0  0  0  0  0
  1  2  2  0
  2  3  1  0
  3  4  2  0
  4  5  1  0
  5  6  2  0
  6  7  1  0
  7  8  2  0
  8  9  1  0
  9 10  2  0
 10 11  1  0
 11 12  1  0
 12 13  2  0
 13 14  1  0
 14 15  2  0
 15 16  1  0
 16 17  2  0
 11  2  1  0
 17 12  1  0
  8  3  1  0
M  END
>  <tags>  (253) 
openbind_xx01zvns2b_c1_knitwork_impure,fragmenstein_placed,openbind_xx01zvns2b_c1_scaffolds_chemok_bbok,BulkDock Fragalysis export,openbind_xx01zvns2b_c1_scaffolds

>  <placement_batch>  (253) 
openbind_xx01zvns2b_c1_knitwork_impure

>  <inspiration_score>  (253) 
None

>  <name>  (253) 
P62158

>  <HIPPO Pose ID>  (253) 
62158

>  <ref_pdb>  (253) 
Z0852a

>  <inchikey>  (253) 
MZLARDIKQOYVKF-UHFFFAOYSA-N

>  <alias>  (253) 
None

>  <ref_mols>  (253) 
Z0852a,Z1719a

>  <subsites>  (253) 
1 - Z4590/B/203/1

>  <distance_score>  (253) 
0.889352

>  <HIPPO Compound ID>  (253) 
67792

>  <smiles>  (253) 
O=c1c2ccccc2ncn1-c1ccccn1

>  <energy_score>  (253) 
-18.759387

$$$$
P62279
     RDKit          3D

 22 24  0  0  0  0  0  0  0  0999 V2000
   -9.6058    4.7649  -18.4810 C   0  0  0  0  0  0  0  0  0  0  0  0
   -8.2500    4.3619  -17.9240 C   0  0  0  0  0  0  0  0  0  0  0  0
   -7.1905    4.4482  -19.0255 C   0  0  0  0  0  0  0  0  0  0  0  0
   -7.8955    5.1065  -16.7211 N   0  0  0  0  0  0  0  0  0  0  0  0
   -6.8421    5.9586  -16.5550 C   0  0  0  0  0  0  0  0  0  0  0  0
   -6.9289    6.6252  -15.4259 N   0  0  0  0  0  0  0  0  0  0  0  0
   -8.0531    6.1352  -14.7896 C   0  0  0  0  0  0  0  0  0  0  0  0
   -8.6556    6.8677  -13.6419 C   0  0  0  0  0  0  0  0  0  0  0  0
   -8.3813    6.4134  -12.3145 N   0  0  0  0  0  0  0  0  0  0  0  0
   -8.4850    5.0104  -11.6986 C   0  0  0  0  0  0  0  0  0  0  0  0
   -8.7357    3.9878  -12.1915 O   0  0  0  0  0  0  0  0  0  0  0  0
   -8.2965    5.1595  -10.1804 C   0  0  0  0  0  0  0  0  0  0  0  0
   -8.1413    6.4646   -9.7778 N   0  0  0  0  0  0  0  0  0  0  0  0
   -8.1709    6.7162   -8.4534 C   0  0  0  0  0  0  0  0  0  0  0  0
   -8.3689    5.7516   -7.4896 C   0  0  0  0  0  0  0  0  0  0  0  0
   -8.5320    4.4311   -7.9051 C   0  0  0  0  0  0  0  0  0  0  0  0
   -8.4482    4.1056   -9.2797 C   0  0  0  0  0  0  0  0  0  0  0  0
   -8.5791    2.6741   -9.7263 C   0  0  0  0  0  0  0  0  0  0  0  0
   -8.3620    1.7379   -8.6276 N   0  0  0  0  0  0  0  0  0  0  0  0
   -9.2161    2.0342   -7.4939 C   0  0  0  0  0  0  0  0  0  0  0  0
   -8.7738    3.3561   -6.8692 C   0  0  0  0  0  0  0  0  0  0  0  0
   -8.6106    5.1240  -15.5506 C   0  0  0  0  0  0  0  0  0  0  0  0
  1  2  1  0
  2  3  1  0
  2  4  1  0
  4  5  1  0
  5  6  2  0
  6  7  1  0
  7  8  1  0
  8  9  1  0
  9 10  1  0
 10 11  2  0
 10 12  1  0
 12 13  2  0
 13 14  1  0
 14 15  2  0
 15 16  1  0
 16 17  2  0
 17 18  1  0
 18 19  1  0
 19 20  1  0
 20 21  1  0
  7 22  2  0
 22  4  1  0
 17 12  1  0
 21 16  1  0
M  END
>  <tags>  (254) 
openbind_xx01zvns2b_c1_knitwork_impure,fragmenstein_placed,openbind_xx01zvns2b_c1_scaffolds_chemok_bbok,BulkDock Fragalysis export,openbind_xx01zvns2b_c1_scaffolds

>  <placement_batch>  (254) 
openbind_xx01zvns2b_c1_knitwork_impure

>  <inspiration_score>  (254) 
None

>  <name>  (254) 
P62279

>  <HIPPO Pose ID>  (254) 
62279

>  <ref_pdb>  (254) 
Z0917a

>  <inchikey>  (254) 
JYGPCVZORLDVJB-UHFFFAOYSA-N

>  <alias>  (254) 
None

>  <ref_mols>  (254) 
Z0917a,Z0969a

>  <subsites>  (254) 
1 - Z4590/B/203/1

>  <distance_score>  (254) 
0.992765

>  <HIPPO Compound ID>  (254) 
68993

>  <smiles>  (254) 
CC(C)n1cnc(CNC(=O)c2nccc3c2CNCC3)c1

>  <energy_score>  (254) 
-62.755338

$$$$
P62280
     RDKit          3D

 21 23  0  0  0  0  0  0  0  0999 V2000
   -9.4157    4.0151  -18.2148 C   0  0  0  0  0  0  0  0  0  0  0  0
   -8.2330    4.9671  -18.1445 C   0  0  0  0  0  0  0  0  0  0  0  0
   -7.0755    4.5042  -19.0291 C   0  0  0  0  0  0  0  0  0  0  0  0
   -7.8100    5.2945  -16.7821 N   0  0  0  0  0  0  0  0  0  0  0  0
   -6.6253    5.8959  -16.4512 C   0  0  0  0  0  0  0  0  0  0  0  0
   -6.6731    6.4542  -15.2622 N   0  0  0  0  0  0  0  0  0  0  0  0
   -7.9212    6.1526  -14.7590 C   0  0  0  0  0  0  0  0  0  0  0  0
   -8.4782    6.8908  -13.5871 C   0  0  0  0  0  0  0  0  0  0  0  0
   -8.2508    6.3581  -12.2776 N   0  0  0  0  0  0  0  0  0  0  0  0
   -8.4183    4.9325  -11.7391 C   0  0  0  0  0  0  0  0  0  0  0  0
   -8.6939    3.9458  -12.2900 O   0  0  0  0  0  0  0  0  0  0  0  0
   -8.2733    4.9589  -10.2615 C   0  0  0  0  0  0  0  0  0  0  0  0
   -8.0658    6.1121   -9.5793 N   0  0  0  0  0  0  0  0  0  0  0  0
   -8.1668    5.7872   -8.2259 O   0  0  0  0  0  0  0  0  0  0  0  0
   -8.4153    4.4687   -8.1231 C   0  0  0  0  0  0  0  0  0  0  0  0
   -8.4651    3.8872   -9.3581 C   0  0  0  0  0  0  0  0  0  0  0  0
   -8.7852    2.4622   -9.5653 C   0  0  0  0  0  0  0  0  0  0  0  0
   -8.7587    1.7391   -8.2796 N   0  0  0  0  0  0  0  0  0  0  0  0
   -9.3556    2.4554   -7.1448 C   0  0  0  0  0  0  0  0  0  0  0  0
   -8.6583    3.8006   -6.8315 C   0  0  0  0  0  0  0  0  0  0  0  0
   -8.6005    5.3516  -15.6611 C   0  0  0  0  0  0  0  0  0  0  0  0
  1  2  1  0
  2  3  1  0
  2  4  1  0
  4  5  1  0
  5  6  2  0
  6  7  1  0
  7  8  1  0
  8  9  1  0
  9 10  1  0
 10 11  2  0
 10 12  1  0
 12 13  2  0
 13 14  1  0
 14 15  1  0
 15 16  2  0
 16 17  1  0
 17 18  1  0
 18 19  1  0
 19 20  1  0
  7 21  2  0
 21  4  1  0
 16 12  1  0
 20 15  1  0
M  END
>  <tags>  (255) 
openbind_xx01zvns2b_c1_knitwork_impure,fragmenstein_placed,openbind_xx01zvns2b_c1_scaffolds_chemok_bbok,BulkDock Fragalysis export,openbind_xx01zvns2b_c1_scaffolds

>  <placement_batch>  (255) 
openbind_xx01zvns2b_c1_knitwork_impure

>  <inspiration_score>  (255) 
None

>  <name>  (255) 
P62280

>  <HIPPO Pose ID>  (255) 
62280

>  <ref_pdb>  (255) 
Z0917a

>  <inchikey>  (255) 
DICZZZKBGDBJHF-UHFFFAOYSA-N

>  <alias>  (255) 
None

>  <ref_mols>  (255) 
Z0917a,Z0969a

>  <subsites>  (255) 
1 - Z4590/B/203/1

>  <distance_score>  (255) 
0.983212

>  <HIPPO Compound ID>  (255) 
68994

>  <smiles>  (255) 
CC(C)n1cnc(CNC(=O)c2noc3c2CNCC3)c1

>  <energy_score>  (255) 
-18.81663

$$$$
P62327
     RDKit          3D

 22 24  0  0  0  0  0  0  0  0999 V2000
   -6.7699    2.0276  -10.3433 C   0  0  0  0  0  0  0  0  0  0  0  0
   -7.9677    2.9573  -10.0645 C   0  0  0  0  0  0  0  0  0  0  0  0
   -9.2500    2.2655  -10.4880 C   0  0  0  0  0  0  0  0  0  0  0  0
   -7.8036    4.2696  -10.8671 C   0  0  0  0  0  0  0  0  0  0  0  0
   -7.7553    4.0399  -12.3370 N   0  0  0  0  0  0  0  0  0  0  0  0
   -7.2583    5.3911  -13.2161 S   0  0  0  0  0  0  0  0  0  0  0  0
   -5.8748    5.6457  -12.8842 O   0  0  0  0  0  0  0  0  0  0  0  0
   -8.2657    6.4221  -13.0755 O   0  0  0  0  0  0  0  0  0  0  0  0
   -7.3492    4.8626  -14.8967 C   0  0  0  0  0  0  0  0  0  0  0  0
   -8.5526    4.3484  -15.3731 C   0  0  0  0  0  0  0  0  0  0  0  0
   -8.7037    4.0351  -16.7195 C   0  0  0  0  0  0  0  0  0  0  0  0
   -7.6198    4.2819  -17.5696 C   0  0  0  0  0  0  0  0  0  0  0  0
   -7.5123    3.9989  -19.2528 S   0  0  0  0  0  0  0  0  0  0  0  0
   -5.9840    4.7616  -19.2705 C   0  0  0  0  0  0  0  0  0  0  0  0
   -5.4794    5.0997  -18.1042 N   0  0  0  0  0  0  0  0  0  0  0  0
   -6.4153    4.8277  -17.1179 C   0  0  0  0  0  0  0  0  0  0  0  0
   -6.2645    5.0972  -15.7467 C   0  0  0  0  0  0  0  0  0  0  0  0
   -8.0031    3.2606   -8.5284 C   0  0  2  0  0  0  0  0  0  0  0  0
   -8.7343    2.2196   -7.6669 C   0  0  0  0  0  0  0  0  0  0  0  0
   -8.8413    2.8958   -6.3172 C   0  0  0  0  0  0  0  0  0  0  0  0
   -8.8608    4.3776   -6.6496 C   0  0  0  0  0  0  0  0  0  0  0  0
   -8.7156    4.4811   -8.1062 N   0  0  0  0  0  0  0  0  0  0  0  0
  1  2  1  0
  2  3  1  0
  2  4  1  0
  4  5  1  0
  5  6  1  0
  6  7  2  0
  6  8  2  0
  6  9  1  0
  9 10  2  0
 10 11  1  0
 11 12  2  0
 12 13  1  0
 13 14  1  0
 14 15  2  0
 15 16  1  0
 16 17  2  0
 18  2  1  6
 18 19  1  0
 19 20  1  0
 20 21  1  0
 21 22  1  0
 17  9  1  0
 22 18  1  0
 16 12  1  0
M  END
>  <tags>  (256) 
openbind_xx01zvns2b_c1_knitwork_impure,BulkDock Fragalysis export,fragmenstein_placed,openbind_xx01zvns2b_c1_scaffolds

>  <placement_batch>  (256) 
openbind_xx01zvns2b_c1_knitwork_impure

>  <inspiration_score>  (256) 
None

>  <name>  (256) 
P62327

>  <HIPPO Pose ID>  (256) 
62327

>  <ref_pdb>  (256) 
Z4008a

>  <inchikey>  (256) 
BVXIXHZBAAESKN-UHFFFAOYSA-N

>  <alias>  (256) 
None

>  <ref_mols>  (256) 
Z0917a,Z4008a

>  <subsites>  (256) 
1 - Z4590/B/203/1

>  <distance_score>  (256) 
0.931167

>  <HIPPO Compound ID>  (256) 
110236

>  <smiles>  (256) 
CC(C)(CNS(=O)(=O)c1ccc2scnc2c1)[C@@H]1CCCN1

>  <energy_score>  (256) 
-79.996775

$$$$
P62403
     RDKit          3D

  9  9  0  0  0  0  0  0  0  0999 V2000
   -5.0701    7.6474  -19.4065 C   0  0  0  0  0  0  0  0  0  0  0  0
   -4.3291    6.3312  -19.5542 C   0  0  0  0  0  0  0  0  0  0  0  0
   -5.0501    5.0793  -19.0163 C   0  0  2  0  0  0  0  0  0  0  0  0
   -6.1876    4.7138  -19.8633 N   0  0  0  0  0  0  0  0  0  0  0  0
   -5.4665    5.0874  -17.5159 C   0  0  2  0  0  0  0  0  0  0  0  0
   -6.5931    5.9792  -17.1055 C   0  0  0  0  0  0  0  0  0  0  0  0
   -6.3422    6.5045  -15.9045 C   0  0  0  0  0  0  0  0  0  0  0  0
   -5.0110    6.0687  -15.4179 C   0  0  0  0  0  0  0  0  0  0  0  0
   -4.3611    5.4358  -16.5793 N   0  0  0  0  0  0  0  0  0  0  0  0
  1  2  1  0
  2  3  1  0
  3  4  1  6
  3  5  1  0
  5  6  1  0
  6  7  2  0
  7  8  1  0
  8  9  1  0
  5  9  1  1
M  END
>  <tags>  (257) 
openbind_xx01zvns2b_c1_knitwork_impure,fragmenstein_placed,openbind_xx01zvns2b_c1_scaffolds_chemok_bbok,BulkDock Fragalysis export,openbind_xx01zvns2b_c1_scaffolds

>  <placement_batch>  (257) 
openbind_xx01zvns2b_c1_knitwork_impure

>  <inspiration_score>  (257) 
None

>  <name>  (257) 
P62403

>  <HIPPO Pose ID>  (257) 
62403

>  <ref_pdb>  (257) 
Z0472a

>  <inchikey>  (257) 
ZYTCIHWTTVNGRX-UHFFFAOYSA-N

>  <alias>  (257) 
None

>  <ref_mols>  (257) 
Z0819a,Z0472a

>  <subsites>  (257) 
1 - Z4590/B/203/1

>  <distance_score>  (257) 
0.958211

>  <HIPPO Compound ID>  (257) 
63967

>  <smiles>  (257) 
CC[C@H](N)[C@@H]1C=CCN1

>  <energy_score>  (257) 
-20.049749

$$$$
P62440
     RDKit          3D

 19 21  0  0  0  0  0  0  0  0999 V2000
   -6.3637    3.8598  -20.4568 O   0  0  0  0  0  0  0  0  0  0  0  0
   -6.5013    4.5947  -19.4874 C   0  0  0  0  0  0  0  0  0  0  0  0
   -5.5769    5.5728  -19.2194 O   0  0  0  0  0  0  0  0  0  0  0  0
   -6.0324    6.8405  -18.7254 C   0  0  0  0  0  0  0  0  0  0  0  0
   -4.9763    7.9203  -18.9499 C   0  0  0  0  0  0  0  0  0  0  0  0
   -3.5363    7.4814  -18.6828 C   0  0  0  0  0  0  0  0  0  0  0  0
   -3.3400    6.7309  -17.4075 C   0  0  0  0  0  0  0  0  0  0  0  0
   -3.0621    5.3875  -17.2377 C   0  0  0  0  0  0  0  0  0  0  0  0
   -2.9577    4.9575  -15.9300 N   0  0  0  0  0  0  0  0  0  0  0  0
   -3.1003    5.9871  -15.1245 C   0  0  0  0  0  0  0  0  0  0  0  0
   -3.4102    7.4983  -15.8761 S   0  0  0  0  0  0  0  0  0  0  0  0
   -7.5637    4.5046  -18.5258 C   0  0  0  0  0  0  0  0  0  0  0  0
   -8.9296    4.3886  -18.7523 C   0  0  0  0  0  0  0  0  0  0  0  0
   -9.6606    4.4155  -17.5802 N   0  0  0  0  0  0  0  0  0  0  0  0
   -8.7393    4.5152  -16.6646 C   0  0  0  0  0  0  0  0  0  0  0  0
   -8.7300    4.6951  -14.9362 S   0  0  0  0  0  0  0  0  0  0  0  0
   -6.9721    4.5627  -14.9620 C   0  0  0  0  0  0  0  0  0  0  0  0
   -6.4782    4.4782  -16.2071 C   0  0  0  0  0  0  0  0  0  0  0  0
   -7.4712    4.4881  -17.1600 N   0  0  0  0  0  0  0  0  0  0  0  0
  1  2  2  0
  2  3  1  0
  3  4  1  0
  4  5  1  0
  5  6  1  0
  6  7  1  0
  7  8  2  0
  8  9  1  0
  9 10  2  0
 10 11  1  0
  2 12  1  0
 12 13  2  0
 13 14  1  0
 14 15  2  0
 15 16  1  0
 16 17  1  0
 17 18  2  0
 18 19  1  0
 11  7  1  0
 19 12  1  0
 19 15  1  0
M  END
>  <tags>  (258) 
openbind_xx01zvns2b_c1_knitwork_impure,BulkDock Fragalysis export,fragmenstein_placed,openbind_xx01zvns2b_c1_scaffolds

>  <placement_batch>  (258) 
openbind_xx01zvns2b_c1_knitwork_impure

>  <inspiration_score>  (258) 
None

>  <name>  (258) 
P62440

>  <HIPPO Pose ID>  (258) 
62440

>  <ref_pdb>  (258) 
Z0788a

>  <inchikey>  (258) 
VSKZGHVPGOMFAV-UHFFFAOYSA-N

>  <alias>  (258) 
None

>  <ref_mols>  (258) 
Z0788a,Z1495a

>  <subsites>  (258) 
1 - Z4590/B/203/1

>  <distance_score>  (258) 
0.85202

>  <HIPPO Compound ID>  (258) 
65678

>  <smiles>  (258) 
O=C(OCCCc1cncs1)c1cnc2sccn12

>  <energy_score>  (258) 
-79.558797

$$$$
P62706
     RDKit          3D

 15 17  0  0  0  0  0  0  0  0999 V2000
  -10.7004    3.9781  -17.7733 O   0  0  0  0  0  0  0  0  0  0  0  0
   -9.6086    4.5460  -17.7465 C   0  0  0  0  0  0  0  0  0  0  0  0
   -8.9353    4.8897  -16.4446 C   0  0  0  0  0  0  0  0  0  0  0  0
   -7.4135    4.8381  -16.5503 C   0  0  0  0  0  0  0  0  0  0  0  0
   -6.9173    5.5681  -17.7264 N   0  0  0  0  0  0  0  0  0  0  0  0
   -5.4401    5.7449  -17.8237 C   0  0  2  0  0  0  0  0  0  0  0  0
   -4.7456    5.9101  -16.4322 C   0  0  0  0  0  0  0  0  0  0  0  0
   -3.2476    6.2234  -16.5329 C   0  0  0  0  0  0  0  0  0  0  0  0
   -2.5497    5.4607  -17.6607 C   0  0  0  0  0  0  0  0  0  0  0  0
   -3.3394    5.3670  -18.9013 N   0  0  0  0  0  0  0  0  0  0  0  0
   -3.7870    6.6975  -19.3611 C   0  0  0  0  0  0  0  0  0  0  0  0
   -5.1333    6.9932  -18.6944 C   0  0  0  0  0  0  0  0  0  0  0  0
   -4.6108    4.6795  -18.5682 C   0  0  0  0  0  0  0  0  0  0  0  0
   -7.4786    4.9303  -18.9375 C   0  0  0  0  0  0  0  0  0  0  0  0
   -8.9849    5.0523  -19.0086 C   0  0  0  0  0  0  0  0  0  0  0  0
  1  2  2  0
  2  3  1  0
  3  4  1  0
  4  5  1  0
  6  5  1  1
  6  7  1  0
  7  8  1  0
  8  9  1  0
  9 10  1  0
 10 11  1  0
 11 12  1  0
 10 13  1  0
  5 14  1  0
 14 15  1  0
 15  2  1  0
 12  6  1  0
 13  6  1  0
M  END
>  <tags>  (259) 
openbind_xx01zvns2b_c1_knitwork_impure,BulkDock Fragalysis export,fragmenstein_placed,openbind_xx01zvns2b_c1_scaffolds

>  <placement_batch>  (259) 
openbind_xx01zvns2b_c1_knitwork_impure

>  <inspiration_score>  (259) 
None

>  <name>  (259) 
P62706

>  <HIPPO Pose ID>  (259) 
62706

>  <ref_pdb>  (259) 
Z0465a

>  <inchikey>  (259) 
CLNOCISDBHNNBK-UHFFFAOYSA-N

>  <alias>  (259) 
None

>  <ref_mols>  (259) 
Z0917a,Z0990a,Z0465a

>  <subsites>  (259) 
1 - Z4590/B/203/1

>  <distance_score>  (259) 
0.980016

>  <HIPPO Compound ID>  (259) 
70086

>  <smiles>  (259) 
O=C1CCN([C@]23CCCN(CC2)C3)CC1

>  <energy_score>  (259) 
-37.880543

$$$$
P62724
     RDKit          3D

 16 18  0  0  0  0  0  0  0  0999 V2000
   -6.9064    4.1807  -15.7023 C   0  0  0  0  0  0  0  0  0  0  0  0
   -7.5125    5.4027  -16.3885 C   0  0  2  0  0  0  0  0  0  0  0  0
   -9.0526    5.2541  -16.3496 C   0  0  0  0  0  0  0  0  0  0  0  0
   -9.6472    4.6686  -17.6087 C   0  0  0  0  0  0  0  0  0  0  0  0
  -10.6831    4.0052  -17.5949 O   0  0  0  0  0  0  0  0  0  0  0  0
   -9.0112    5.0242  -18.9064 C   0  0  0  0  0  0  0  0  0  0  0  0
   -7.5210    4.8542  -18.7707 C   0  0  0  0  0  0  0  0  0  0  0  0
   -6.9604    5.7229  -17.7201 N   0  0  0  0  0  0  0  0  0  0  0  0
   -5.4898    5.9232  -17.8781 C   0  0  2  0  0  0  0  0  0  0  0  0
   -4.7183    6.4381  -16.6042 C   0  0  0  0  0  0  0  0  0  0  0  0
   -3.3116    5.8390  -16.4592 C   0  0  0  0  0  0  0  0  0  0  0  0
   -2.5540    5.7000  -17.7819 C   0  0  0  0  0  0  0  0  0  0  0  0
   -3.4050    5.4779  -18.9632 N   0  0  0  0  0  0  0  0  0  0  0  0
   -3.8840    6.7685  -19.5075 C   0  0  0  0  0  0  0  0  0  0  0  0
   -5.2914    7.0076  -18.9753 C   0  0  0  0  0  0  0  0  0  0  0  0
   -4.6486    4.7900  -18.5254 C   0  0  0  0  0  0  0  0  0  0  0  0
  2  1  1  6
  2  3  1  0
  3  4  1  0
  4  5  2  0
  4  6  1  0
  6  7  1  0
  7  8  1  0
  9  8  1  1
  9 10  1  0
 10 11  1  0
 11 12  1  0
 12 13  1  0
 13 14  1  0
 14 15  1  0
 13 16  1  0
  8  2  1  0
 15  9  1  0
 16  9  1  0
M  END
>  <tags>  (260) 
openbind_xx01zvns2b_c1_knitwork_impure,BulkDock Fragalysis export,fragmenstein_placed,openbind_xx01zvns2b_c1_scaffolds

>  <placement_batch>  (260) 
openbind_xx01zvns2b_c1_knitwork_impure

>  <inspiration_score>  (260) 
None

>  <name>  (260) 
P62724

>  <HIPPO Pose ID>  (260) 
62724

>  <ref_pdb>  (260) 
Z0465a

>  <inchikey>  (260) 
CHZIJKAUEAIIGZ-UHFFFAOYSA-N

>  <alias>  (260) 
None

>  <ref_mols>  (260) 
Z0917a,Z0990a,Z0465a

>  <subsites>  (260) 
1 - Z4590/B/203/1

>  <distance_score>  (260) 
0.985309

>  <HIPPO Compound ID>  (260) 
70102

>  <smiles>  (260) 
C[C@@H]1CC(=O)CCN1[C@]12CCCN(CC1)C2

>  <energy_score>  (260) 
-32.322187

$$$$
P63070
     RDKit          3D

 14 15  0  0  0  0  0  0  0  0999 V2000
   -3.9498    7.3731  -13.9947 O   0  0  0  0  0  0  0  0  0  0  0  0
   -3.2502    7.1665  -15.2219 C   0  0  0  0  0  0  0  0  0  0  0  0
   -4.1639    6.6617  -16.3394 C   0  0  0  0  0  0  0  0  0  0  0  0
   -4.4459    5.2771  -16.1296 O   0  0  0  0  0  0  0  0  0  0  0  0
   -5.7846    5.0767  -15.8809 C   0  0  0  0  0  0  0  0  0  0  0  0
   -6.1730    5.0350  -14.5387 C   0  0  0  0  0  0  0  0  0  0  0  0
   -7.4866    4.7364  -14.2118 C   0  0  0  0  0  0  0  0  0  0  0  0
   -8.3928    4.4504  -15.2277 C   0  0  0  0  0  0  0  0  0  0  0  0
   -7.9989    4.4751  -16.5758 C   0  0  0  0  0  0  0  0  0  0  0  0
   -8.9040    4.1565  -17.5961 C   0  0  0  0  0  0  0  0  0  0  0  0
   -8.4832    4.1802  -18.9164 C   0  0  0  0  0  0  0  0  0  0  0  0
   -7.1721    4.5295  -19.1724 C   0  0  0  0  0  0  0  0  0  0  0  0
   -6.2742    4.8594  -18.2179 N   0  0  0  0  0  0  0  0  0  0  0  0
   -6.6724    4.8085  -16.9289 C   0  0  0  0  0  0  0  0  0  0  0  0
  1  2  1  0
  2  3  1  0
  3  4  1  0
  4  5  1  0
  5  6  2  0
  6  7  1  0
  7  8  2  0
  8  9  1  0
  9 10  2  0
 10 11  1  0
 11 12  2  0
 12 13  1  0
 13 14  2  0
 14  5  1  0
 14  9  1  0
M  END
>  <tags>  (261) 
openbind_xx01zvns2b_c1_knitwork_impure,fragmenstein_placed,openbind_xx01zvns2b_c1_scaffolds_chemok_bbok,BulkDock Fragalysis export,openbind_xx01zvns2b_c1_scaffolds

>  <placement_batch>  (261) 
openbind_xx01zvns2b_c1_knitwork_impure

>  <inspiration_score>  (261) 
None

>  <name>  (261) 
P63070

>  <HIPPO Pose ID>  (261) 
63070

>  <ref_pdb>  (261) 
Z3527a

>  <inchikey>  (261) 
FFUGVLKPGQKINE-UHFFFAOYSA-N

>  <alias>  (261) 
None

>  <ref_mols>  (261) 
Z3527a,Z0884a

>  <subsites>  (261) 
1 - Z4590/B/203/1

>  <distance_score>  (261) 
0.800353

>  <HIPPO Compound ID>  (261) 
111157

>  <smiles>  (261) 
OCCOc1cccc2cccnc12

>  <energy_score>  (261) 
-8.024089

$$$$
P63231
     RDKit          3D

 23 26  0  0  0  0  0  0  0  0999 V2000
    1.3737    5.7616  -20.4867 C   0  0  0  0  0  0  0  0  0  0  0  0
    2.7725    5.4400  -20.6543 N   0  0  0  0  0  0  0  0  0  0  0  0
    3.6111    5.2345  -19.5860 C   0  0  0  0  0  0  0  0  0  0  0  0
    4.8677    4.9846  -20.0729 C   0  0  0  0  0  0  0  0  0  0  0  0
    4.7941    5.0309  -21.4901 C   0  0  0  0  0  0  0  0  0  0  0  0
    5.7661    4.8437  -22.4915 C   0  0  0  0  0  0  0  0  0  0  0  0
    5.3999    4.9364  -23.8310 C   0  0  0  0  0  0  0  0  0  0  0  0
    4.0836    5.2168  -24.1811 C   0  0  0  0  0  0  0  0  0  0  0  0
    3.0848    5.4107  -23.2149 C   0  0  0  0  0  0  0  0  0  0  0  0
    1.7766    5.6879  -23.6159 N   0  0  0  0  0  0  0  0  0  0  0  0
    1.1798    5.8955  -25.0325 C   0  0  0  0  0  0  0  0  0  0  0  0
    1.7045    5.9428  -26.0759 O   0  0  0  0  0  0  0  0  0  0  0  0
   -0.2943    6.1342  -24.9762 C   0  0  0  0  0  0  0  0  0  0  0  0
   -1.1053    5.5466  -25.9523 C   0  0  0  0  0  0  0  0  0  0  0  0
   -2.4780    5.8029  -25.9723 C   0  0  0  0  0  0  0  0  0  0  0  0
   -3.0520    6.6589  -25.0231 C   0  0  0  0  0  0  0  0  0  0  0  0
   -2.2437    7.2391  -24.0280 C   0  0  0  0  0  0  0  0  0  0  0  0
   -0.8609    6.9924  -24.0261 C   0  0  0  0  0  0  0  0  0  0  0  0
   -2.8347    8.1881  -23.0117 C   0  0  0  0  0  0  0  0  0  0  0  0
   -4.2767    8.0175  -22.8232 N   0  0  0  0  0  0  0  0  0  0  0  0
   -4.9519    8.0833  -24.1237 C   0  0  0  0  0  0  0  0  0  0  0  0
   -4.5388    6.9308  -25.0492 C   0  0  0  0  0  0  0  0  0  0  0  0
    3.4629    5.3124  -21.8513 C   0  0  0  0  0  0  0  0  0  0  0  0
  1  2  1  0
  2  3  1  0
  3  4  2  0
  4  5  1  0
  5  6  2  0
  6  7  1  0
  7  8  2  0
  8  9  1  0
  9 10  1  0
 10 11  1  0
 11 12  2  0
 11 13  1  0
 13 14  2  0
 14 15  1  0
 15 16  2  0
 16 17  1  0
 17 18  2  0
 17 19  1  0
 19 20  1  0
 20 21  1  0
 21 22  1  0
  9 23  2  0
 23  2  1  0
 23  5  1  0
 18 13  1  0
 22 16  1  0
M  END
>  <tags>  (262) 
openbind_xx01zvns2b_c1_knitwork_impure,fragmenstein_placed,openbind_xx01zvns2b_c1_scaffolds_chemok_bbok,BulkDock Fragalysis export,openbind_xx01zvns2b_c1_scaffolds

>  <placement_batch>  (262) 
openbind_xx01zvns2b_c1_knitwork_impure

>  <inspiration_score>  (262) 
None

>  <name>  (262) 
P63231

>  <HIPPO Pose ID>  (262) 
63231

>  <ref_pdb>  (262) 
Z2971a

>  <inchikey>  (262) 
NUVDPKUDJRPSFW-UHFFFAOYSA-N

>  <alias>  (262) 
None

>  <ref_mols>  (262) 
Z2971a,Z3515a

>  <subsites>  (262) 
1 - Z4590/B/203/1

>  <distance_score>  (262) 
0.891323

>  <HIPPO Compound ID>  (262) 
63190

>  <smiles>  (262) 
Cn1ccc2cccc(NC(=O)c3ccc4c(c3)CNCC4)c21

>  <energy_score>  (262) 
-27.859157

$$$$
P63341
     RDKit          3D

 14 14  0  0  0  0  0  0  0  0999 V2000
   -5.5180    6.4427  -15.7001 C   0  0  0  0  0  0  0  0  0  0  0  0
   -6.4356    5.3486  -15.1415 C   0  0  2  0  0  0  0  0  0  0  0  0
   -5.5837    4.2052  -14.7902 N   0  0  0  0  0  0  0  0  0  0  0  0
   -6.1138    3.3432  -13.7443 C   0  0  0  0  0  0  0  0  0  0  0  0
   -4.9971    2.4585  -13.1739 C   0  0  0  0  0  0  0  0  0  0  0  0
   -3.8799    3.2008  -12.4362 C   0  0  0  0  0  0  0  0  0  0  0  0
   -3.0841    4.1856  -13.2751 C   0  0  0  0  0  0  0  0  0  0  0  0
   -1.9786    4.5534  -12.5662 F   0  0  0  0  0  0  0  0  0  0  0  0
   -2.6258    3.5962  -14.4077 F   0  0  0  0  0  0  0  0  0  0  0  0
   -7.4809    4.9551  -16.1429 C   0  0  0  0  0  0  0  0  0  0  0  0
   -8.7999    4.6182  -15.9313 C   0  0  0  0  0  0  0  0  0  0  0  0
   -9.3417    4.4449  -17.1761 N   0  0  0  0  0  0  0  0  0  0  0  0
   -8.3397    4.6258  -18.0848 C   0  0  0  0  0  0  0  0  0  0  0  0
   -7.2085    4.9355  -17.4936 N   0  0  0  0  0  0  0  0  0  0  0  0
  2  1  1  6
  2  3  1  0
  3  4  1  0
  4  5  1  0
  5  6  1  0
  6  7  1  0
  7  8  1  0
  7  9  1  0
  2 10  1  0
 10 11  2  0
 11 12  1  0
 12 13  1  0
 13 14  2  0
 14 10  1  0
M  END
>  <tags>  (263) 
openbind_xx01zvns2b_c1_knitwork_impure,fragmenstein_placed,openbind_xx01zvns2b_c1_scaffolds_chemok_bbok,BulkDock Fragalysis export,openbind_xx01zvns2b_c1_scaffolds

>  <placement_batch>  (263) 
openbind_xx01zvns2b_c1_knitwork_impure

>  <inspiration_score>  (263) 
None

>  <name>  (263) 
P63341

>  <HIPPO Pose ID>  (263) 
63341

>  <ref_pdb>  (263) 
Z0719a

>  <inchikey>  (263) 
UHPNYUYWVOKMMH-UHFFFAOYSA-N

>  <alias>  (263) 
None

>  <ref_mols>  (263) 
Z0719a,Z0472a

>  <subsites>  (263) 
1 - Z4590/B/203/1

>  <distance_score>  (263) 
0.697523

>  <HIPPO Compound ID>  (263) 
111483

>  <smiles>  (263) 
C[C@H](NCCCC(F)F)c1c[nH]cn1

>  <energy_score>  (263) 
-24.364436

$$$$
P63354
     RDKit          3D

 14 14  0  0  0  0  0  0  0  0999 V2000
   -5.6374    1.8423  -11.6806 C   0  0  0  0  0  0  0  0  0  0  0  0
   -5.1118    2.4821  -12.9562 C   0  0  0  0  0  0  0  0  0  0  0  0
   -6.1996    3.3004  -13.6605 C   0  0  0  0  0  0  0  0  0  0  0  0
   -5.5828    4.0580  -14.7364 N   0  0  0  0  0  0  0  0  0  0  0  0
   -6.3618    5.2136  -15.2475 C   0  0  2  0  0  0  0  0  0  0  0  0
   -7.3684    4.8056  -16.2872 C   0  0  0  0  0  0  0  0  0  0  0  0
   -7.1977    4.8627  -17.5923 N   0  0  0  0  0  0  0  0  0  0  0  0
   -8.4002    4.5360  -18.1536 C   0  0  0  0  0  0  0  0  0  0  0  0
   -9.3199    4.2557  -17.1765 C   0  0  0  0  0  0  0  0  0  0  0  0
   -8.6384    4.3654  -15.9943 N   0  0  0  0  0  0  0  0  0  0  0  0
   -5.4307    6.3150  -15.8440 C   0  0  0  0  0  0  0  0  0  0  0  0
   -4.6377    5.8637  -16.8430 F   0  0  0  0  0  0  0  0  0  0  0  0
   -4.6048    6.8055  -14.8770 F   0  0  0  0  0  0  0  0  0  0  0  0
   -6.1312    7.3834  -16.3005 F   0  0  0  0  0  0  0  0  0  0  0  0
  1  2  1  0
  2  3  1  0
  3  4  1  0
  5  4  1  6
  5  6  1  0
  6  7  2  0
  7  8  1  0
  8  9  2  0
  9 10  1  0
  5 11  1  0
 11 12  1  0
 11 13  1  0
 11 14  1  0
 10  6  1  0
M  END
>  <tags>  (264) 
openbind_xx01zvns2b_c1_knitwork_impure,BulkDock Fragalysis export,fragmenstein_placed,openbind_xx01zvns2b_c1_scaffolds

>  <placement_batch>  (264) 
openbind_xx01zvns2b_c1_knitwork_impure

>  <inspiration_score>  (264) 
None

>  <name>  (264) 
P63354

>  <HIPPO Pose ID>  (264) 
63354

>  <ref_pdb>  (264) 
Z0719a

>  <inchikey>  (264) 
RMCDATIQTXVRGL-UHFFFAOYSA-N

>  <alias>  (264) 
None

>  <ref_mols>  (264) 
Z0719a,Z0472a

>  <subsites>  (264) 
1 - Z4590/B/203/1

>  <distance_score>  (264) 
0.584684

>  <HIPPO Compound ID>  (264) 
111500

>  <smiles>  (264) 
CCCN[C@H](c1ncc[nH]1)C(F)(F)F

>  <energy_score>  (264) 
-13.668657

$$$$
P63505
     RDKit          3D

 16 18  0  0  0  0  0  0  0  0999 V2000
   -5.5494    4.5190  -20.5091 O   0  0  0  0  0  0  0  0  0  0  0  0
   -6.0395    4.5663  -19.3892 C   0  0  0  0  0  0  0  0  0  0  0  0
   -7.3884    4.2626  -19.1350 N   0  0  0  0  0  0  0  0  0  0  0  0
   -7.6376    4.3661  -17.7804 C   0  0  0  0  0  0  0  0  0  0  0  0
   -8.8137    4.0849  -17.1241 C   0  0  0  0  0  0  0  0  0  0  0  0
   -8.7884    4.1789  -15.7355 C   0  0  0  0  0  0  0  0  0  0  0  0
   -7.6165    4.5446  -15.0543 C   0  0  0  0  0  0  0  0  0  0  0  0
   -6.4377    4.8314  -15.7531 C   0  0  0  0  0  0  0  0  0  0  0  0
   -6.4618    4.7603  -17.1333 C   0  0  0  0  0  0  0  0  0  0  0  0
   -5.4675    4.9207  -18.1266 N   0  0  0  0  0  0  0  0  0  0  0  0
   -4.1060    5.2251  -17.9192 C   0  0  0  0  0  0  0  0  0  0  0  0
   -3.6581    5.9923  -16.8430 C   0  0  0  0  0  0  0  0  0  0  0  0
   -2.2942    6.2514  -16.6865 C   0  0  0  0  0  0  0  0  0  0  0  0
   -1.3958    5.7470  -17.6122 C   0  0  0  0  0  0  0  0  0  0  0  0
   -1.9052    5.0139  -18.6639 C   0  0  0  0  0  0  0  0  0  0  0  0
   -3.2215    4.7620  -18.8301 N   0  0  0  0  0  0  0  0  0  0  0  0
  1  2  2  0
  2  3  1  0
  3  4  1  0
  4  5  2  0
  5  6  1  0
  6  7  2  0
  7  8  1  0
  8  9  2  0
  9 10  1  0
 10 11  1  0
 11 12  2  0
 12 13  1  0
 13 14  2  0
 14 15  1  0
 15 16  2  0
 10  2  1  0
 16 11  1  0
  9  4  1  0
M  END
>  <tags>  (265) 
openbind_xx01zvns2b_c1_knitwork_impure,BulkDock Fragalysis export,fragmenstein_placed,openbind_xx01zvns2b_c1_scaffolds

>  <placement_batch>  (265) 
openbind_xx01zvns2b_c1_knitwork_impure

>  <inspiration_score>  (265) 
None

>  <name>  (265) 
P63505

>  <HIPPO Pose ID>  (265) 
63505

>  <ref_pdb>  (265) 
Z4245a

>  <inchikey>  (265) 
GGBFSPYIYZKVSA-UHFFFAOYSA-N

>  <alias>  (265) 
None

>  <ref_mols>  (265) 
Z4245a,Z0673a

>  <subsites>  (265) 
1 - Z4590/B/203/1

>  <distance_score>  (265) 
0.703563

>  <HIPPO Compound ID>  (265) 
48858

>  <smiles>  (265) 
O=c1[nH]c2ccccc2n1-c1ccccn1

>  <energy_score>  (265) 
-13.660514

$$$$
P63515
     RDKit          3D

 11 11  0  0  0  0  0  0  0  0999 V2000
   -9.5051    4.4869  -18.8255 C   0  0  0  0  0  0  0  0  0  0  0  0
   -7.7660    4.4067  -18.5149 S   0  0  0  0  0  0  0  0  0  0  0  0
   -7.5967    4.1464  -17.1004 O   0  0  0  0  0  0  0  0  0  0  0  0
   -7.2042    3.5763  -19.5525 O   0  0  0  0  0  0  0  0  0  0  0  0
   -7.1716    5.9395  -18.8241 N   0  0  0  0  0  0  0  0  0  0  0  0
   -5.7526    6.0707  -18.7213 C   0  0  0  0  0  0  0  0  0  0  0  0
   -4.9485    5.4791  -17.7543 C   0  0  0  0  0  0  0  0  0  0  0  0
   -3.5838    5.7623  -17.7499 C   0  0  0  0  0  0  0  0  0  0  0  0
   -3.0747    6.6523  -18.6844 C   0  0  0  0  0  0  0  0  0  0  0  0
   -3.9632    7.2416  -19.5687 C   0  0  0  0  0  0  0  0  0  0  0  0
   -5.2929    6.9996  -19.5833 N   0  0  0  0  0  0  0  0  0  0  0  0
  1  2  1  0
  2  3  2  0
  2  4  2  0
  2  5  1  0
  5  6  1  0
  6  7  2  0
  7  8  1  0
  8  9  2  0
  9 10  1  0
 10 11  2  0
 11  6  1  0
M  END
>  <tags>  (266) 
openbind_xx01zvns2b_c1_knitwork_impure,BulkDock Fragalysis export,fragmenstein_placed,openbind_xx01zvns2b_c1_scaffolds

>  <placement_batch>  (266) 
openbind_xx01zvns2b_c1_knitwork_impure

>  <inspiration_score>  (266) 
None

>  <name>  (266) 
P63515

>  <HIPPO Pose ID>  (266) 
63515

>  <ref_pdb>  (266) 
Z1719a

>  <inchikey>  (266) 
FAWKTAUBPNRVDS-UHFFFAOYSA-N

>  <alias>  (266) 
None

>  <ref_mols>  (266) 
Z1046b,Z1719a

>  <subsites>  (266) 
1 - Z4590/B/203/1

>  <distance_score>  (266) 
0.929803

>  <HIPPO Compound ID>  (266) 
62986

>  <smiles>  (266) 
CS(=O)(=O)Nc1ccccn1

>  <energy_score>  (266) 
-25.057985

$$$$
P63527
     RDKit          3D

 23 26  0  0  0  0  0  0  0  0999 V2000
   -7.6892    6.5082  -14.2307 O   0  0  0  0  0  0  0  0  0  0  0  0
   -7.9072    5.3789  -14.4026 C   0  0  0  0  0  0  0  0  0  0  0  0
   -8.1742    4.2547  -13.3971 N   0  0  0  0  0  0  0  0  0  0  0  0
   -8.1384    4.2585  -12.0129 C   0  0  0  0  0  0  0  0  0  0  0  0
   -8.1209    3.0326  -11.3579 C   0  0  0  0  0  0  0  0  0  0  0  0
   -8.0106    2.9907   -9.9654 C   0  0  0  0  0  0  0  0  0  0  0  0
   -7.9512    4.2103   -9.2912 C   0  0  0  0  0  0  0  0  0  0  0  0
   -7.8441    4.6638   -7.9625 C   0  0  0  0  0  0  0  0  0  0  0  0
   -7.8485    5.9989   -7.8661 N   0  0  0  0  0  0  0  0  0  0  0  0
   -7.9559    6.3975   -9.1583 N   0  0  0  0  0  0  0  0  0  0  0  0
   -8.0010    5.3654  -10.0521 C   0  0  0  0  0  0  0  0  0  0  0  0
   -8.0792    5.4593  -11.3923 N   0  0  0  0  0  0  0  0  0  0  0  0
   -7.9210    4.8583  -15.7557 C   0  0  0  0  0  0  0  0  0  0  0  0
   -8.9214    4.1983  -16.4449 C   0  0  0  0  0  0  0  0  0  0  0  0
   -8.4861    4.1520  -17.7778 C   0  0  0  0  0  0  0  0  0  0  0  0
   -7.2659    4.6667  -17.9195 N   0  0  0  0  0  0  0  0  0  0  0  0
   -6.9035    5.0229  -16.6735 N   0  0  0  0  0  0  0  0  0  0  0  0
   -5.5217    5.4087  -16.3890 C   0  0  0  0  0  0  0  0  0  0  0  0
   -5.3213    6.9200  -16.2541 C   0  0  0  0  0  0  0  0  0  0  0  0
   -3.9513    7.2589  -15.6646 C   0  0  0  0  0  0  0  0  0  0  0  0
   -2.8679    6.2640  -16.0711 C   0  0  0  0  0  0  0  0  0  0  0  0
   -3.1765    5.6390  -17.4242 C   0  0  0  0  0  0  0  0  0  0  0  0
   -4.4788    4.8336  -17.3792 C   0  0  0  0  0  0  0  0  0  0  0  0
  1  2  2  0
  2  3  1  0
  3  4  1  0
  4  5  2  0
  5  6  1  0
  6  7  2  0
  7  8  1  0
  8  9  2  0
  9 10  1  0
 10 11  1  0
 11 12  2  0
  2 13  1  0
 13 14  2  0
 14 15  1  0
 15 16  2  0
 16 17  1  0
 17 18  1  0
 18 19  1  0
 19 20  1  0
 20 21  1  0
 21 22  1  0
 22 23  1  0
 12  4  1  0
 17 13  1  0
 23 18  1  0
 11  7  1  0
M  END
>  <tags>  (267) 
openbind_xx01zvns2b_c1_knitwork_impure,fragmenstein_placed,openbind_xx01zvns2b_c1_scaffolds_chemok_bbok,BulkDock Fragalysis export,openbind_xx01zvns2b_c1_scaffolds

>  <placement_batch>  (267) 
openbind_xx01zvns2b_c1_knitwork_impure

>  <inspiration_score>  (267) 
None

>  <name>  (267) 
P63527

>  <HIPPO Pose ID>  (267) 
63527

>  <ref_pdb>  (267) 
Z1098a

>  <inchikey>  (267) 
KHAVSKIUNGEHRY-UHFFFAOYSA-N

>  <alias>  (267) 
None

>  <ref_mols>  (267) 
Z1098a,Z0709a

>  <subsites>  (267) 
1 - Z4590/B/203/1

>  <distance_score>  (267) 
0.960971

>  <HIPPO Compound ID>  (267) 
111786

>  <smiles>  (267) 
O=C(Nc1ccc2cn[nH]c2n1)c1ccnn1C1CCCCC1

>  <energy_score>  (267) 
-28.48666

$$$$
P63561
     RDKit          3D

 15 17  0  0  0  0  0  0  0  0999 V2000
   -5.1312    5.3443  -18.7514 C   0  0  0  0  0  0  0  0  0  0  0  0
   -4.5537    5.7603  -17.6120 N   0  0  0  0  0  0  0  0  0  0  0  0
   -5.2721    5.7149  -16.4551 C   0  0  0  0  0  0  0  0  0  0  0  0
   -4.5337    6.1946  -15.2269 C   0  0  0  0  0  0  0  0  0  0  0  0
   -4.4288    5.1398  -14.1224 C   0  0  0  0  0  0  0  0  0  0  0  0
   -3.5885    5.6698  -12.9560 C   0  0  0  0  0  0  0  0  0  0  0  0
   -3.7749    7.0949  -12.6559 N   0  0  0  0  0  0  0  0  0  0  0  0
   -5.0363    7.6129  -13.1766 C   0  0  0  0  0  0  0  0  0  0  0  0
   -5.0974    7.5242  -14.6996 C   0  0  0  0  0  0  0  0  0  0  0  0
   -6.6077    5.2564  -16.5098 C   0  0  0  0  0  0  0  0  0  0  0  0
   -7.6468    5.0872  -15.5321 C   0  0  0  0  0  0  0  0  0  0  0  0
   -8.8046    4.5704  -16.0702 C   0  0  0  0  0  0  0  0  0  0  0  0
   -8.6794    4.3295  -17.7554 S   0  0  0  0  0  0  0  0  0  0  0  0
   -7.0644    4.8686  -17.7616 C   0  0  0  0  0  0  0  0  0  0  0  0
   -6.3683    4.8883  -18.9029 N   0  0  0  0  0  0  0  0  0  0  0  0
  1  2  2  0
  2  3  1  0
  3  4  1  0
  4  5  1  0
  5  6  1  0
  6  7  1  0
  7  8  1  0
  8  9  1  0
  3 10  2  0
 10 11  1  0
 11 12  2  0
 12 13  1  0
 13 14  1  0
 14 15  2  0
 15  1  1  0
  9  4  1  0
 14 10  1  0
M  END
>  <tags>  (268) 
openbind_xx01zvns2b_c1_knitwork_impure,BulkDock Fragalysis export,fragmenstein_placed,openbind_xx01zvns2b_c1_scaffolds

>  <placement_batch>  (268) 
openbind_xx01zvns2b_c1_knitwork_impure

>  <inspiration_score>  (268) 
None

>  <name>  (268) 
P63561

>  <HIPPO Pose ID>  (268) 
63561

>  <ref_pdb>  (268) 
Z0827a

>  <inchikey>  (268) 
UAFNJJFMGCYSFJ-UHFFFAOYSA-N

>  <alias>  (268) 
None

>  <ref_mols>  (268) 
Z0827a,Z0709a

>  <subsites>  (268) 
1 - Z4590/B/203/1

>  <distance_score>  (268) 
0.956079

>  <HIPPO Compound ID>  (268) 
65595

>  <smiles>  (268) 
c1nc(C2CCNCC2)c2ccsc2n1

>  <energy_score>  (268) 
-46.221689

$$$$
P63585
     RDKit          3D

 15 17  0  0  0  0  0  0  0  0999 V2000
   -3.6108    4.9530  -19.0685 C   0  0  0  0  0  0  0  0  0  0  0  0
   -5.0105    4.7974  -19.0822 C   0  0  0  0  0  0  0  0  0  0  0  0
   -5.5326    5.2977  -17.8995 C   0  0  0  0  0  0  0  0  0  0  0  0
   -6.9703    5.2766  -17.4077 C   0  0  1  0  0  0  0  0  0  0  0  0
   -7.8844    4.5799  -18.4233 C   0  0  0  0  0  0  0  0  0  0  0  0
   -9.3235    4.4086  -17.9692 C   0  0  0  0  0  0  0  0  0  0  0  0
   -9.4889    4.4991  -16.4658 C   0  0  0  0  0  0  0  0  0  0  0  0
   -8.3624    3.9112  -15.7859 N   0  0  0  0  0  0  0  0  0  0  0  0
   -7.1134    4.6139  -16.0140 C   0  0  0  0  0  0  0  0  0  0  0  0
   -4.4702    5.8469  -17.2277 N   0  0  0  0  0  0  0  0  0  0  0  0
   -3.2893    5.5577  -17.8769 C   0  0  0  0  0  0  0  0  0  0  0  0
   -1.9757    5.9377  -17.3010 C   0  0  0  0  0  0  0  0  0  0  0  0
   -1.8474    5.5933  -15.5132 S   0  0  0  0  0  0  0  0  0  0  0  0
   -3.5790    5.8713  -14.9636 C   0  0  0  0  0  0  0  0  0  0  0  0
   -4.4566    6.5847  -15.9806 C   0  0  0  0  0  0  0  0  0  0  0  0
  1  2  1  0
  2  3  2  0
  4  3  1  6
  4  5  1  0
  5  6  1  0
  6  7  1  0
  7  8  1  0
  8  9  1  0
  3 10  1  0
 10 11  1  0
 11 12  1  0
 12 13  1  0
 13 14  1  0
 14 15  1  0
 11  1  2  0
  9  4  1  0
 15 10  1  0
M  END
>  <tags>  (269) 
openbind_xx01zvns2b_c1_knitwork_impure,fragmenstein_placed,openbind_xx01zvns2b_c1_scaffolds_chemok_bbok,BulkDock Fragalysis export,openbind_xx01zvns2b_c1_scaffolds

>  <placement_batch>  (269) 
openbind_xx01zvns2b_c1_knitwork_impure

>  <inspiration_score>  (269) 
None

>  <name>  (269) 
P63585

>  <HIPPO Pose ID>  (269) 
63585

>  <ref_pdb>  (269) 
Z0827a

>  <inchikey>  (269) 
LGVYFNCVSCIMIP-UHFFFAOYSA-N

>  <alias>  (269) 
None

>  <ref_mols>  (269) 
Z0827a,Z0422a

>  <subsites>  (269) 
1 - Z4590/B/203/1

>  <distance_score>  (269) 
0.976499

>  <HIPPO Compound ID>  (269) 
111871

>  <smiles>  (269) 
c1cc([C@H]2CCCNC2)n2c1CSCC2

>  <energy_score>  (269) 
-16.075585

$$$$
P63590
     RDKit          3D

 15 17  0  0  0  0  0  0  0  0999 V2000
   -3.7542    4.8564  -19.0890 C   0  0  0  0  0  0  0  0  0  0  0  0
   -5.1563    4.7017  -19.0787 C   0  0  0  0  0  0  0  0  0  0  0  0
   -5.6636    5.2576  -17.9169 C   0  0  0  0  0  0  0  0  0  0  0  0
   -7.0909    5.3536  -17.4201 C   0  0  0  0  0  0  0  0  0  0  0  0
   -8.1518    4.9948  -18.4704 C   0  0  0  0  0  0  0  0  0  0  0  0
   -9.3493    4.1893  -17.9810 C   0  0  0  0  0  0  0  0  0  0  0  0
   -9.7508    4.3075  -16.5972 N   0  0  0  0  0  0  0  0  0  0  0  0
   -8.7660    4.8022  -15.6662 C   0  0  0  0  0  0  0  0  0  0  0  0
   -7.3339    4.5849  -16.1249 C   0  0  0  0  0  0  0  0  0  0  0  0
   -4.5797    5.7894  -17.2571 N   0  0  0  0  0  0  0  0  0  0  0  0
   -3.4098    5.4884  -17.9192 C   0  0  0  0  0  0  0  0  0  0  0  0
   -2.0844    5.8859  -17.3835 C   0  0  0  0  0  0  0  0  0  0  0  0
   -1.9086    5.6157  -15.5885 S   0  0  0  0  0  0  0  0  0  0  0  0
   -3.6383    5.8432  -15.0150 C   0  0  0  0  0  0  0  0  0  0  0  0
   -4.5449    6.5412  -16.0172 C   0  0  0  0  0  0  0  0  0  0  0  0
  1  2  1  0
  2  3  2  0
  3  4  1  0
  4  5  1  0
  5  6  1  0
  6  7  1  0
  7  8  1  0
  8  9  1  0
  3 10  1  0
 10 11  1  0
 11 12  1  0
 12 13  1  0
 13 14  1  0
 14 15  1  0
 11  1  2  0
  9  4  1  0
 15 10  1  0
M  END
>  <tags>  (270) 
openbind_xx01zvns2b_c1_knitwork_impure,BulkDock Fragalysis export,fragmenstein_placed,openbind_xx01zvns2b_c1_scaffolds

>  <placement_batch>  (270) 
openbind_xx01zvns2b_c1_knitwork_impure

>  <inspiration_score>  (270) 
None

>  <name>  (270) 
P63590

>  <HIPPO Pose ID>  (270) 
63590

>  <ref_pdb>  (270) 
Z0827a

>  <inchikey>  (270) 
WKXKBLINEJKBIV-UHFFFAOYSA-N

>  <alias>  (270) 
None

>  <ref_mols>  (270) 
Z0827a,Z0422a

>  <subsites>  (270) 
1 - Z4590/B/203/1

>  <distance_score>  (270) 
0.857138

>  <HIPPO Compound ID>  (270) 
111883

>  <smiles>  (270) 
c1cc(C2CCNCC2)n2c1CSCC2

>  <energy_score>  (270) 
-14.487979

$$$$
P63685
     RDKit          3D

 18 19  0  0  0  0  0  0  0  0999 V2000
   -6.0937   10.8062  -23.9093 O   0  0  0  0  0  0  0  0  0  0  0  0
   -5.4923    9.8213  -24.0852 C   0  0  0  0  0  0  0  0  0  0  0  0
   -4.3214    9.3510  -23.2031 C   0  0  0  0  0  0  0  0  0  0  0  0
   -4.1773    7.9340  -23.1559 O   0  0  0  0  0  0  0  0  0  0  0  0
   -5.0867    7.2514  -22.2766 C   0  0  0  0  0  0  0  0  0  0  0  0
   -4.7479    7.3482  -20.7892 C   0  0  0  0  0  0  0  0  0  0  0  0
   -4.7961    8.6456  -20.3863 F   0  0  0  0  0  0  0  0  0  0  0  0
   -3.4988    6.9071  -20.5129 F   0  0  0  0  0  0  0  0  0  0  0  0
   -5.6602    8.7224  -25.1618 N   0  0  0  0  0  0  0  0  0  0  0  0
   -6.5955    8.5712  -26.1181 C   0  0  0  0  0  0  0  0  0  0  0  0
   -6.6800    7.5451  -26.9210 N   0  0  0  0  0  0  0  0  0  0  0  0
   -7.9296    7.6357  -27.4765 C   0  0  0  0  0  0  0  0  0  0  0  0
   -8.6022    6.7257  -28.3007 C   0  0  0  0  0  0  0  0  0  0  0  0
   -9.9160    7.0137  -28.6783 C   0  0  0  0  0  0  0  0  0  0  0  0
  -10.5438    8.1823  -28.2430 C   0  0  0  0  0  0  0  0  0  0  0  0
   -9.8838    9.1163  -27.4338 C   0  0  0  0  0  0  0  0  0  0  0  0
   -8.5712    8.8062  -27.0761 C   0  0  0  0  0  0  0  0  0  0  0  0
   -7.6414    9.4367  -26.2870 N   0  0  0  0  0  0  0  0  0  0  0  0
  1  2  2  0
  2  3  1  0
  3  4  1  0
  4  5  1  0
  5  6  1  0
  6  7  1  0
  6  8  1  0
  2  9  1  0
  9 10  1  0
 10 11  2  0
 11 12  1  0
 12 13  2  0
 13 14  1  0
 14 15  2  0
 15 16  1  0
 16 17  2  0
 17 18  1  0
 18 10  1  0
 17 12  1  0
M  END
>  <tags>  (271) 
openbind_xx01zvns2b_c1_knitwork_impure,fragmenstein_placed,openbind_xx01zvns2b_c1_scaffolds_chemok_bbok,BulkDock Fragalysis export,openbind_xx01zvns2b_c1_scaffolds

>  <placement_batch>  (271) 
openbind_xx01zvns2b_c1_knitwork_impure

>  <inspiration_score>  (271) 
None

>  <name>  (271) 
P63685

>  <HIPPO Pose ID>  (271) 
63685

>  <ref_pdb>  (271) 
Z0846a

>  <inchikey>  (271) 
GEKOOXNRCYJUMJ-UHFFFAOYSA-N

>  <alias>  (271) 
None

>  <ref_mols>  (271) 
Z1046b,Z0846a

>  <subsites>  (271) 
1 - Z4590/B/203/1

>  <distance_score>  (271) 
0.790631

>  <HIPPO Compound ID>  (271) 
107847

>  <smiles>  (271) 
O=C(COCC(F)F)Nc1nc2ccccc2[nH]1

>  <energy_score>  (271) 
-32.195303

$$$$
P63687
     RDKit          3D

 21 22  0  0  0  0  0  0  0  0999 V2000
   -3.5445    9.8307  -23.1103 C   0  0  0  0  0  0  0  0  0  0  0  0
   -5.0053    9.5553  -22.7873 C   0  0  0  0  0  0  0  0  0  0  0  0
   -5.4529   10.3317  -21.5432 C   0  0  0  0  0  0  0  0  0  0  0  0
   -5.2431    8.1357  -22.7646 O   0  0  0  0  0  0  0  0  0  0  0  0
   -5.1036    7.3635  -21.5694 C   0  0  0  0  0  0  0  0  0  0  0  0
   -3.7285    7.3130  -20.9193 C   0  0  0  0  0  0  0  0  0  0  0  0
   -3.4048    8.5161  -20.3917 F   0  0  0  0  0  0  0  0  0  0  0  0
   -3.7015    6.4293  -19.8965 F   0  0  0  0  0  0  0  0  0  0  0  0
   -2.7576    6.9796  -21.7928 F   0  0  0  0  0  0  0  0  0  0  0  0
   -5.8668   10.0836  -23.9914 C   0  0  0  0  0  0  0  0  0  0  0  0
   -6.3504   11.1468  -24.0321 O   0  0  0  0  0  0  0  0  0  0  0  0
   -5.9855    8.8878  -24.9712 N   0  0  0  0  0  0  0  0  0  0  0  0
   -6.7429    8.7322  -26.0713 C   0  0  0  0  0  0  0  0  0  0  0  0
   -6.7666    7.6557  -26.8108 N   0  0  0  0  0  0  0  0  0  0  0  0
   -7.9728    7.7085  -27.4587 C   0  0  0  0  0  0  0  0  0  0  0  0
   -8.6017    6.7368  -28.2463 C   0  0  0  0  0  0  0  0  0  0  0  0
   -9.8975    6.9886  -28.7053 C   0  0  0  0  0  0  0  0  0  0  0  0
  -10.5505    8.1800  -28.3832 C   0  0  0  0  0  0  0  0  0  0  0  0
   -9.9304    9.1741  -27.6154 C   0  0  0  0  0  0  0  0  0  0  0  0
   -8.6328    8.9045  -27.1836 C   0  0  0  0  0  0  0  0  0  0  0  0
   -7.7407    9.6047  -26.4088 N   0  0  0  0  0  0  0  0  0  0  0  0
  1  2  1  0
  2  3  1  0
  2  4  1  0
  4  5  1  0
  5  6  1  0
  6  7  1  0
  6  8  1  0
  6  9  1  0
  2 10  1  0
 10 11  2  0
 10 12  1  0
 12 13  1  0
 13 14  2  0
 14 15  1  0
 15 16  2  0
 16 17  1  0
 17 18  2  0
 18 19  1  0
 19 20  2  0
 20 21  1  0
 21 13  1  0
 20 15  1  0
M  END
>  <tags>  (272) 
openbind_xx01zvns2b_c1_knitwork_impure,fragmenstein_placed,openbind_xx01zvns2b_c1_scaffolds_chemok_bbok,BulkDock Fragalysis export,openbind_xx01zvns2b_c1_scaffolds

>  <placement_batch>  (272) 
openbind_xx01zvns2b_c1_knitwork_impure

>  <inspiration_score>  (272) 
None

>  <name>  (272) 
P63687

>  <HIPPO Pose ID>  (272) 
63687

>  <ref_pdb>  (272) 
Z0846a

>  <inchikey>  (272) 
JGVKJAISRJVPGH-UHFFFAOYSA-N

>  <alias>  (272) 
None

>  <ref_mols>  (272) 
Z1046b,Z0846a

>  <subsites>  (272) 
1 - Z4590/B/203/1

>  <distance_score>  (272) 
0.876679

>  <HIPPO Compound ID>  (272) 
107856

>  <smiles>  (272) 
CC(C)(OCC(F)(F)F)C(=O)Nc1nc2ccccc2[nH]1

>  <energy_score>  (272) 
-12.610815

$$$$
P63689
     RDKit          3D

 16 17  0  0  0  0  0  0  0  0999 V2000
   -5.5397    6.7604  -24.2827 C   0  0  0  0  0  0  0  0  0  0  0  0
   -5.3763    7.6419  -23.2958 C   0  0  0  0  0  0  0  0  0  0  0  0
   -4.3159    8.6863  -23.3035 C   0  0  0  0  0  0  0  0  0  0  0  0
   -5.0446   10.2860  -23.6374 S   0  0  0  0  0  0  0  0  0  0  0  0
   -4.0078   11.2732  -23.3997 O   0  0  0  0  0  0  0  0  0  0  0  0
   -6.2932   10.3839  -22.9104 O   0  0  0  0  0  0  0  0  0  0  0  0
   -5.2720   10.2912  -25.3150 N   0  0  0  0  0  0  0  0  0  0  0  0
   -6.4407    9.6559  -25.8822 C   0  0  0  0  0  0  0  0  0  0  0  0
   -6.3538    8.5509  -26.5808 N   0  0  0  0  0  0  0  0  0  0  0  0
   -7.6299    8.3098  -27.0437 C   0  0  0  0  0  0  0  0  0  0  0  0
   -8.1452    7.2134  -27.7521 C   0  0  0  0  0  0  0  0  0  0  0  0
   -9.5014    7.2155  -28.1054 C   0  0  0  0  0  0  0  0  0  0  0  0
  -10.3274    8.2891  -27.7656 C   0  0  0  0  0  0  0  0  0  0  0  0
   -9.8329    9.3939  -27.0610 C   0  0  0  0  0  0  0  0  0  0  0  0
   -8.4792    9.3623  -26.7128 C   0  0  0  0  0  0  0  0  0  0  0  0
   -7.6775   10.2237  -26.0044 N   0  0  0  0  0  0  0  0  0  0  0  0
  1  2  2  0
  2  3  1  0
  3  4  1  0
  4  5  2  0
  4  6  2  0
  4  7  1  0
  7  8  1  0
  8  9  2  0
  9 10  1  0
 10 11  2  0
 11 12  1  0
 12 13  2  0
 13 14  1  0
 14 15  2  0
 15 16  1  0
 16  8  1  0
 15 10  1  0
M  END
>  <tags>  (273) 
openbind_xx01zvns2b_c1_knitwork_impure,BulkDock Fragalysis export,fragmenstein_placed,openbind_xx01zvns2b_c1_scaffolds

>  <placement_batch>  (273) 
openbind_xx01zvns2b_c1_knitwork_impure

>  <inspiration_score>  (273) 
None

>  <name>  (273) 
P63689

>  <HIPPO Pose ID>  (273) 
63689

>  <ref_pdb>  (273) 
Z0846a

>  <inchikey>  (273) 
BKOXWQQDKDZJBL-UHFFFAOYSA-N

>  <alias>  (273) 
None

>  <ref_mols>  (273) 
Z1046b,Z0846a

>  <subsites>  (273) 
1 - Z4590/B/203/1

>  <distance_score>  (273) 
0.994494

>  <HIPPO Compound ID>  (273) 
107866

>  <smiles>  (273) 
C=CCS(=O)(=O)Nc1nc2ccccc2[nH]1

>  <energy_score>  (273) 
-20.800295

$$$$
P63942
     RDKit          3D

 15 16  0  0  0  0  0  0  0  0999 V2000
   -4.8849    2.3797  -12.6030 C   0  0  0  0  0  0  0  0  0  0  0  0
   -6.3521    2.7693  -12.5885 C   0  0  0  0  0  0  0  0  0  0  0  0
   -6.7471    3.2675  -13.8786 N   0  0  0  0  0  0  0  0  0  0  0  0
   -6.6861    4.6874  -14.4615 C   0  0  0  0  0  0  0  0  0  0  0  0
   -6.2363    5.6656  -14.0199 O   0  0  0  0  0  0  0  0  0  0  0  0
   -7.2354    4.6907  -15.8375 C   0  0  0  0  0  0  0  0  0  0  0  0
   -8.5971    4.4160  -16.0073 C   0  0  0  0  0  0  0  0  0  0  0  0
   -9.1283    4.3415  -17.2893 C   0  0  0  0  0  0  0  0  0  0  0  0
   -8.2975    4.5347  -18.3933 C   0  0  0  0  0  0  0  0  0  0  0  0
   -6.9283    4.8217  -18.2353 C   0  0  0  0  0  0  0  0  0  0  0  0
   -6.0890    5.0026  -19.3398 C   0  0  0  0  0  0  0  0  0  0  0  0
   -4.7494    5.2815  -19.1365 C   0  0  0  0  0  0  0  0  0  0  0  0
   -4.1807    5.3870  -17.9210 N   0  0  0  0  0  0  0  0  0  0  0  0
   -5.0056    5.2018  -16.8601 C   0  0  0  0  0  0  0  0  0  0  0  0
   -6.3810    4.9164  -16.9423 C   0  0  0  0  0  0  0  0  0  0  0  0
  1  2  1  0
  2  3  1  0
  3  4  1  0
  4  5  2  0
  4  6  1  0
  6  7  2  0
  7  8  1  0
  8  9  2  0
  9 10  1  0
 10 11  2  0
 11 12  1  0
 12 13  2  0
 13 14  1  0
 14 15  2  0
 15  6  1  0
 15 10  1  0
M  END
>  <tags>  (274) 
openbind_xx01zvns2b_c1_knitwork_impure,fragmenstein_placed,openbind_xx01zvns2b_c1_scaffolds_chemok_bbok,BulkDock Fragalysis export,openbind_xx01zvns2b_c1_scaffolds

>  <placement_batch>  (274) 
openbind_xx01zvns2b_c1_knitwork_impure

>  <inspiration_score>  (274) 
None

>  <name>  (274) 
P63942

>  <HIPPO Pose ID>  (274) 
63942

>  <ref_pdb>  (274) 
Z0727a

>  <inchikey>  (274) 
BRZPENBXQVLNLF-UHFFFAOYSA-N

>  <alias>  (274) 
None

>  <ref_mols>  (274) 
Z0719a,Z0727a

>  <subsites>  (274) 
1 - Z4590/B/203/1

>  <distance_score>  (274) 
0.857202

>  <HIPPO Compound ID>  (274) 
110476

>  <smiles>  (274) 
CCNC(=O)c1cccc2ccncc12

>  <energy_score>  (274) 
-1.228749

$$$$
P63943
     RDKit          3D

 16 17  0  0  0  0  0  0  0  0999 V2000
   -4.6099    2.8974  -12.7692 C   0  0  0  0  0  0  0  0  0  0  0  0
   -6.0508    2.4569  -12.9831 C   0  0  0  0  0  0  0  0  0  0  0  0
   -6.9087    2.6333  -11.7549 C   0  0  0  0  0  0  0  0  0  0  0  0
   -6.6628    3.1202  -14.1047 N   0  0  0  0  0  0  0  0  0  0  0  0
   -6.6562    4.6001  -14.5137 C   0  0  0  0  0  0  0  0  0  0  0  0
   -6.2202    5.5312  -13.9694 O   0  0  0  0  0  0  0  0  0  0  0  0
   -7.2409    4.7167  -15.8682 C   0  0  0  0  0  0  0  0  0  0  0  0
   -8.6012    4.4343  -16.0299 C   0  0  0  0  0  0  0  0  0  0  0  0
   -9.1370    4.3642  -17.3096 C   0  0  0  0  0  0  0  0  0  0  0  0
   -8.3097    4.5621  -18.4161 C   0  0  0  0  0  0  0  0  0  0  0  0
   -6.9398    4.8530  -18.2635 C   0  0  0  0  0  0  0  0  0  0  0  0
   -6.0989    5.0272  -19.3681 C   0  0  0  0  0  0  0  0  0  0  0  0
   -4.7585    5.3042  -19.1666 C   0  0  0  0  0  0  0  0  0  0  0  0
   -4.1889    5.4124  -17.9521 N   0  0  0  0  0  0  0  0  0  0  0  0
   -5.0130    5.2285  -16.8910 C   0  0  0  0  0  0  0  0  0  0  0  0
   -6.3898    4.9483  -16.9732 C   0  0  0  0  0  0  0  0  0  0  0  0
  1  2  1  0
  2  3  1  0
  2  4  1  0
  4  5  1  0
  5  6  2  0
  5  7  1  0
  7  8  2  0
  8  9  1  0
  9 10  2  0
 10 11  1  0
 11 12  2  0
 12 13  1  0
 13 14  2  0
 14 15  1  0
 15 16  2  0
 16  7  1  0
 16 11  1  0
M  END
>  <tags>  (275) 
openbind_xx01zvns2b_c1_knitwork_impure,BulkDock Fragalysis export,fragmenstein_placed,openbind_xx01zvns2b_c1_scaffolds

>  <placement_batch>  (275) 
openbind_xx01zvns2b_c1_knitwork_impure

>  <inspiration_score>  (275) 
None

>  <name>  (275) 
P63943

>  <HIPPO Pose ID>  (275) 
63943

>  <ref_pdb>  (275) 
Z0727a

>  <inchikey>  (275) 
VMFOUQSADXXPGL-UHFFFAOYSA-N

>  <alias>  (275) 
None

>  <ref_mols>  (275) 
Z0719a,Z0727a

>  <subsites>  (275) 
1 - Z4590/B/203/1

>  <distance_score>  (275) 
0.721834

>  <HIPPO Compound ID>  (275) 
110477

>  <smiles>  (275) 
CC(C)NC(=O)c1cccc2ccncc12

>  <energy_score>  (275) 
-2.379328

$$$$
P63966
     RDKit          3D

 19 20  0  0  0  0  0  0  0  0999 V2000
   -3.5447    2.6546  -13.2513 C   0  0  0  0  0  0  0  0  0  0  0  0
   -4.7370    2.6322  -13.1050 C   0  0  0  0  0  0  0  0  0  0  0  0
   -6.2028    2.6035  -12.9341 C   0  0  2  0  0  0  0  0  0  0  0  0
   -6.7915    3.1760  -14.1156 N   0  0  0  0  0  0  0  0  0  0  0  0
   -6.8554    4.6337  -14.5920 C   0  0  0  0  0  0  0  0  0  0  0  0
   -6.5101    5.6140  -14.0693 O   0  0  0  0  0  0  0  0  0  0  0  0
   -7.3711    4.6715  -15.9767 C   0  0  0  0  0  0  0  0  0  0  0  0
   -8.7180    4.3646  -16.1962 C   0  0  0  0  0  0  0  0  0  0  0  0
   -9.1982    4.2861  -17.4965 C   0  0  0  0  0  0  0  0  0  0  0  0
   -8.3265    4.4966  -18.5640 C   0  0  0  0  0  0  0  0  0  0  0  0
   -6.9701    4.8112  -18.3554 C   0  0  0  0  0  0  0  0  0  0  0  0
   -6.0880    5.0047  -19.4239 C   0  0  0  0  0  0  0  0  0  0  0  0
   -4.7626    5.3060  -19.1664 C   0  0  0  0  0  0  0  0  0  0  0  0
   -4.2459    5.4195  -17.9290 N   0  0  0  0  0  0  0  0  0  0  0  0
   -5.1106    5.2196  -16.9034 C   0  0  0  0  0  0  0  0  0  0  0  0
   -6.4779    4.9150  -17.0443 C   0  0  0  0  0  0  0  0  0  0  0  0
   -6.6664    3.2870  -11.6490 C   0  0  0  0  0  0  0  0  0  0  0  0
   -8.1933    3.3456  -11.5275 C   0  0  0  0  0  0  0  0  0  0  0  0
   -6.0986    2.5942  -10.4008 C   0  0  0  0  0  0  0  0  0  0  0  0
  1  2  3  0
  3  2  1  6
  3  4  1  0
  4  5  1  0
  5  6  2  0
  5  7  1  0
  7  8  2  0
  8  9  1  0
  9 10  2  0
 10 11  1  0
 11 12  2  0
 12 13  1  0
 13 14  2  0
 14 15  1  0
 15 16  2  0
  3 17  1  0
 17 18  1  0
 17 19  1  0
 16  7  1  0
 16 11  1  0
M  END
>  <tags>  (276) 
openbind_xx01zvns2b_c1_knitwork_impure,fragmenstein_placed,openbind_xx01zvns2b_c1_scaffolds_chemok_bbok,BulkDock Fragalysis export,openbind_xx01zvns2b_c1_scaffolds

>  <placement_batch>  (276) 
openbind_xx01zvns2b_c1_knitwork_impure

>  <inspiration_score>  (276) 
None

>  <name>  (276) 
P63966

>  <HIPPO Pose ID>  (276) 
63966

>  <ref_pdb>  (276) 
Z0727a

>  <inchikey>  (276) 
PPXTXQWZJYEIPC-UHFFFAOYSA-N

>  <alias>  (276) 
None

>  <ref_mols>  (276) 
Z0719a,Z0727a

>  <subsites>  (276) 
1 - Z4590/B/203/1

>  <distance_score>  (276) 
0.765352

>  <HIPPO Compound ID>  (276) 
110510

>  <smiles>  (276) 
C#C[C@H](NC(=O)c1cccc2ccncc12)C(C)C

>  <energy_score>  (276) 
-2.38897

$$$$
P64008
     RDKit          3D

 18 19  0  0  0  0  0  0  0  0999 V2000
   -8.3052    2.9144  -11.5063 C   0  0  0  0  0  0  0  0  0  0  0  0
   -7.8879    4.3745  -11.4880 C   0  0  2  0  0  0  0  0  0  0  0  0
   -8.2342    4.9541  -10.2253 O   0  0  0  0  0  0  0  0  0  0  0  0
   -8.4707    5.2421  -12.6164 C   0  0  0  0  0  0  0  0  0  0  0  0
   -8.9044    4.5117  -13.7736 O   0  0  0  0  0  0  0  0  0  0  0  0
   -8.0363    4.5836  -14.8155 C   0  0  0  0  0  0  0  0  0  0  0  0
   -8.4855    4.8434  -16.0886 C   0  0  0  0  0  0  0  0  0  0  0  0
   -7.6618    5.1194  -17.1249 N   0  0  0  0  0  0  0  0  0  0  0  0
   -6.3386    5.0817  -16.8688 C   0  0  0  0  0  0  0  0  0  0  0  0
   -5.4285    5.6644  -17.8651 C   0  0  0  0  0  0  0  0  0  0  0  0
   -5.7537    5.5800  -19.2315 C   0  0  0  0  0  0  0  0  0  0  0  0
   -4.9701    6.1892  -20.2154 C   0  0  0  0  0  0  0  0  0  0  0  0
   -3.8163    6.8754  -19.8649 C   0  0  0  0  0  0  0  0  0  0  0  0
   -3.4542    6.9622  -18.5266 C   0  0  0  0  0  0  0  0  0  0  0  0
   -4.2573    6.3797  -17.5341 C   0  0  0  0  0  0  0  0  0  0  0  0
   -3.7646    6.7176  -15.9037 Cl  0  0  0  0  0  0  0  0  0  0  0  0
   -5.8132    4.6689  -15.7059 N   0  0  0  0  0  0  0  0  0  0  0  0
   -6.6764    4.4308  -14.7060 C   0  0  0  0  0  0  0  0  0  0  0  0
  2  1  1  1
  2  3  1  0
  2  4  1  0
  4  5  1  0
  5  6  1  0
  6  7  2  0
  7  8  1  0
  8  9  2  0
  9 10  1  0
 10 11  2  0
 11 12  1  0
 12 13  2  0
 13 14  1  0
 14 15  2  0
 15 16  1  0
  9 17  1  0
 17 18  2  0
 18  6  1  0
 15 10  1  0
M  END
>  <tags>  (277) 
openbind_xx01zvns2b_c1_knitwork_impure,fragmenstein_placed,openbind_xx01zvns2b_c1_scaffolds_chemok_bbok,BulkDock Fragalysis export,openbind_xx01zvns2b_c1_scaffolds

>  <placement_batch>  (277) 
openbind_xx01zvns2b_c1_knitwork_impure

>  <inspiration_score>  (277) 
None

>  <name>  (277) 
P64008

>  <HIPPO Pose ID>  (277) 
64008

>  <ref_pdb>  (277) 
Z0945a

>  <inchikey>  (277) 
YNAXBFBIONGQDS-UHFFFAOYSA-N

>  <alias>  (277) 
None

>  <ref_mols>  (277) 
Z0945a,Z0884a

>  <subsites>  (277) 
1 - Z4590/B/203/1

>  <distance_score>  (277) 
0.923556

>  <HIPPO Compound ID>  (277) 
112376

>  <smiles>  (277) 
C[C@H](O)COc1cnc(-c2ccccc2Cl)nc1

>  <energy_score>  (277) 
-12.383263

$$$$
P64009
     RDKit          3D

 17 18  0  0  0  0  0  0  0  0999 V2000
   -8.7179    6.2685  -11.7471 O   0  0  0  0  0  0  0  0  0  0  0  0
   -7.8375    5.1523  -11.8402 C   0  0  0  0  0  0  0  0  0  0  0  0
   -8.4952    3.9856  -12.5858 C   0  0  0  0  0  0  0  0  0  0  0  0
   -8.9745    4.3579  -13.8870 O   0  0  0  0  0  0  0  0  0  0  0  0
   -8.0649    4.4639  -14.8869 C   0  0  0  0  0  0  0  0  0  0  0  0
   -8.4972    4.8825  -16.1244 C   0  0  0  0  0  0  0  0  0  0  0  0
   -7.6722    5.2100  -17.1455 N   0  0  0  0  0  0  0  0  0  0  0  0
   -6.3533    5.0874  -16.9062 C   0  0  0  0  0  0  0  0  0  0  0  0
   -5.4269    5.6803  -17.8772 C   0  0  0  0  0  0  0  0  0  0  0  0
   -5.7260    5.6097  -19.2500 C   0  0  0  0  0  0  0  0  0  0  0  0
   -4.9203    6.2241  -20.2119 C   0  0  0  0  0  0  0  0  0  0  0  0
   -3.7723    6.9039  -19.8294 C   0  0  0  0  0  0  0  0  0  0  0  0
   -3.4374    6.9765  -18.4823 C   0  0  0  0  0  0  0  0  0  0  0  0
   -4.2617    6.3857  -17.5128 C   0  0  0  0  0  0  0  0  0  0  0  0
   -3.8071    6.6947  -15.8663 Cl  0  0  0  0  0  0  0  0  0  0  0  0
   -5.8368    4.5630  -15.7856 N   0  0  0  0  0  0  0  0  0  0  0  0
   -6.7100    4.2555  -14.8081 C   0  0  0  0  0  0  0  0  0  0  0  0
  1  2  1  0
  2  3  1  0
  3  4  1  0
  4  5  1  0
  5  6  2  0
  6  7  1  0
  7  8  2  0
  8  9  1  0
  9 10  2  0
 10 11  1  0
 11 12  2  0
 12 13  1  0
 13 14  2  0
 14 15  1  0
  8 16  1  0
 16 17  2  0
 17  5  1  0
 14  9  1  0
M  END
>  <tags>  (278) 
openbind_xx01zvns2b_c1_knitwork_impure,fragmenstein_placed,openbind_xx01zvns2b_c1_scaffolds_chemok_bbok,BulkDock Fragalysis export,openbind_xx01zvns2b_c1_scaffolds

>  <placement_batch>  (278) 
openbind_xx01zvns2b_c1_knitwork_impure

>  <inspiration_score>  (278) 
None

>  <name>  (278) 
P64009

>  <HIPPO Pose ID>  (278) 
64009

>  <ref_pdb>  (278) 
Z0945a

>  <inchikey>  (278) 
CXKVBJWYKLHQNW-UHFFFAOYSA-N

>  <alias>  (278) 
None

>  <ref_mols>  (278) 
Z0945a,Z0884a

>  <subsites>  (278) 
1 - Z4590/B/203/1

>  <distance_score>  (278) 
0.927218

>  <HIPPO Compound ID>  (278) 
112377

>  <smiles>  (278) 
OCCOc1cnc(-c2ccccc2Cl)nc1

>  <energy_score>  (278) 
-17.353341

$$$$
P64088
     RDKit          3D

 14 16  0  0  0  0  0  0  0  0999 V2000
   -7.6676    4.5489  -15.2391 C   0  0  0  0  0  0  0  0  0  0  0  0
   -8.6625    4.2918  -16.1846 C   0  0  0  0  0  0  0  0  0  0  0  0
   -8.4250    4.4325  -17.5570 C   0  0  0  0  0  0  0  0  0  0  0  0
   -7.1453    4.8457  -17.9272 C   0  0  0  0  0  0  0  0  0  0  0  0
   -6.5726    5.1084  -19.1480 N   0  0  0  0  0  0  0  0  0  0  0  0
   -5.2582    5.4481  -18.9339 C   0  0  0  0  0  0  0  0  0  0  0  0
   -4.3145    5.7516  -19.9595 C   0  0  0  0  0  0  0  0  0  0  0  0
   -4.4693    6.4927  -21.1143 C   0  0  0  0  0  0  0  0  0  0  0  0
   -3.2793    6.4445  -21.8991 C   0  0  0  0  0  0  0  0  0  0  0  0
   -2.2738    5.7130  -21.4241 N   0  0  0  0  0  0  0  0  0  0  0  0
   -2.6835    5.2146  -19.8885 S   0  0  0  0  0  0  0  0  0  0  0  0
   -4.9722    5.4528  -17.6492 N   0  0  0  0  0  0  0  0  0  0  0  0
   -6.1307    5.0919  -17.0114 C   0  0  0  0  0  0  0  0  0  0  0  0
   -6.3897    4.9523  -15.6412 C   0  0  0  0  0  0  0  0  0  0  0  0
  1  2  2  0
  2  3  1  0
  3  4  2  0
  4  5  1  0
  5  6  1  0
  6  7  1  0
  7  8  2  0
  8  9  1  0
  9 10  2  0
 10 11  1  0
  6 12  2  0
 12 13  1  0
 13 14  2  0
 14  1  1  0
 13  4  1  0
 11  7  1  0
M  END
>  <tags>  (279) 
openbind_xx01zvns2b_c1_knitwork_impure,fragmenstein_placed,openbind_xx01zvns2b_c1_scaffolds_chemok_bbok,BulkDock Fragalysis export,openbind_xx01zvns2b_c1_scaffolds

>  <placement_batch>  (279) 
openbind_xx01zvns2b_c1_knitwork_impure

>  <inspiration_score>  (279) 
None

>  <name>  (279) 
P64088

>  <HIPPO Pose ID>  (279) 
64088

>  <ref_pdb>  (279) 
Z3880a

>  <inchikey>  (279) 
RWSXKINRNHFOJX-UHFFFAOYSA-N

>  <alias>  (279) 
None

>  <ref_mols>  (279) 
Z0852a,Z3880a

>  <subsites>  (279) 
1 - Z4590/B/203/1

>  <distance_score>  (279) 
0.924396

>  <HIPPO Compound ID>  (279) 
59010

>  <smiles>  (279) 
c1ccc2[nH]c(-c3ccns3)nc2c1

>  <energy_score>  (279) 
-16.909257

$$$$
P64196
     RDKit          3D

 17 19  0  0  0  0  0  0  0  0999 V2000
   -8.2062    4.8049  -15.9392 C   0  0  0  0  0  0  0  0  0  0  0  0
   -7.4968    4.9972  -17.0718 N   0  0  0  0  0  0  0  0  0  0  0  0
   -6.1567    5.0385  -16.9406 C   0  0  0  0  0  0  0  0  0  0  0  0
   -5.2941    5.1584  -18.1810 C   0  0  1  0  0  0  0  0  0  0  0  0
   -5.9275    6.0594  -19.2478 C   0  0  0  0  0  0  0  0  0  0  0  0
   -4.8808    6.7908  -20.0777 C   0  0  0  0  0  0  0  0  0  0  0  0
   -3.9697    7.6385  -19.1921 C   0  0  0  0  0  0  0  0  0  0  0  0
   -3.6042    7.0125  -17.9241 N   0  0  0  0  0  0  0  0  0  0  0  0
   -3.8257    5.5627  -17.9090 C   0  0  0  0  0  0  0  0  0  0  0  0
   -5.5229    4.8545  -15.7715 N   0  0  0  0  0  0  0  0  0  0  0  0
   -6.2618    4.6558  -14.6643 C   0  0  0  0  0  0  0  0  0  0  0  0
   -7.6415    4.6579  -14.6841 C   0  0  0  0  0  0  0  0  0  0  0  0
   -8.4562    4.4900  -13.4389 C   0  0  0  0  0  0  0  0  0  0  0  0
   -8.2056    5.5718  -12.3818 C   0  0  0  0  0  0  0  0  0  0  0  0
   -6.9228    5.3978  -11.5715 C   0  0  0  0  0  0  0  0  0  0  0  0
   -5.6379    5.5258  -12.3823 C   0  0  0  0  0  0  0  0  0  0  0  0
   -5.4706    4.4116  -13.4084 C   0  0  0  0  0  0  0  0  0  0  0  0
  1  2  2  0
  2  3  1  0
  4  3  1  1
  4  5  1  0
  5  6  1  0
  6  7  1  0
  7  8  1  0
  8  9  1  0
  3 10  2  0
 10 11  1  0
 11 12  2  0
 12 13  1  0
 13 14  1  0
 14 15  1  0
 15 16  1  0
 16 17  1  0
 12  1  1  0
  9  4  1  0
 17 11  1  0
M  END
>  <tags>  (280) 
openbind_xx01zvns2b_c1_knitwork_impure,fragmenstein_placed,openbind_xx01zvns2b_c1_scaffolds_chemok_bbok,BulkDock Fragalysis export,openbind_xx01zvns2b_c1_scaffolds

>  <placement_batch>  (280) 
openbind_xx01zvns2b_c1_knitwork_impure

>  <inspiration_score>  (280) 
None

>  <name>  (280) 
P64196

>  <HIPPO Pose ID>  (280) 
64196

>  <ref_pdb>  (280) 
Z0827a

>  <inchikey>  (280) 
MRBFGEHILMYPTF-UHFFFAOYSA-N

>  <alias>  (280) 
None

>  <ref_mols>  (280) 
Z0827a,Z0945a

>  <subsites>  (280) 
1 - Z4590/B/203/1

>  <distance_score>  (280) 
0.992942

>  <HIPPO Compound ID>  (280) 
60904

>  <smiles>  (280) 
c1nc([C@H]2CCCNC2)nc2c1CCCCC2

>  <energy_score>  (280) 
-33.161571

$$$$
P64200
     RDKit          3D

 12 13  0  0  0  0  0  0  0  0999 V2000
   -7.0225    5.8204  -11.2491 C   0  0  0  0  0  0  0  0  0  0  0  0
   -8.0875    5.0819  -11.7246 C   0  0  0  0  0  0  0  0  0  0  0  0
   -8.2208    4.7747  -13.0326 N   0  0  0  0  0  0  0  0  0  0  0  0
   -7.2475    5.2168  -13.8722 C   0  0  0  0  0  0  0  0  0  0  0  0
   -7.3236    4.7587  -15.3192 C   0  0  0  0  0  0  0  0  0  0  0  0
   -6.3404    5.4758  -16.2636 C   0  0  0  0  0  0  0  0  0  0  0  0
   -6.5559    5.0991  -17.7240 C   0  0  0  0  0  0  0  0  0  0  0  0
   -7.9309    5.3682  -18.1049 N   0  0  0  0  0  0  0  0  0  0  0  0
   -8.8647    4.5516  -17.3361 C   0  0  0  0  0  0  0  0  0  0  0  0
   -8.7613    4.8766  -15.8494 C   0  0  0  0  0  0  0  0  0  0  0  0
   -6.1868    5.9674  -13.3687 C   0  0  0  0  0  0  0  0  0  0  0  0
   -6.0498    6.2880  -12.0586 N   0  0  0  0  0  0  0  0  0  0  0  0
  1  2  2  0
  2  3  1  0
  3  4  2  0
  4  5  1  0
  5  6  1  0
  6  7  1  0
  7  8  1  0
  8  9  1  0
  9 10  1  0
  4 11  1  0
 11 12  2  0
 12  1  1  0
 10  5  1  0
M  END
>  <tags>  (281) 
openbind_xx01zvns2b_c1_knitwork_impure,fragmenstein_placed,openbind_xx01zvns2b_c1_scaffolds_chemok_bbok,BulkDock Fragalysis export,openbind_xx01zvns2b_c1_scaffolds

>  <placement_batch>  (281) 
openbind_xx01zvns2b_c1_knitwork_impure

>  <inspiration_score>  (281) 
None

>  <name>  (281) 
P64200

>  <HIPPO Pose ID>  (281) 
64200

>  <ref_pdb>  (281) 
Z0827a

>  <inchikey>  (281) 
DCJVBQLYXOYOSE-UHFFFAOYSA-N

>  <alias>  (281) 
None

>  <ref_mols>  (281) 
Z0827a,Z0945a

>  <subsites>  (281) 
1 - Z4590/B/203/1

>  <distance_score>  (281) 
0.850059

>  <HIPPO Compound ID>  (281) 
60932

>  <smiles>  (281) 
c1cnc(C2CCNCC2)cn1

>  <energy_score>  (281) 
-23.886884

$$$$
P64201
     RDKit          3D

 14 16  0  0  0  0  0  0  0  0999 V2000
   -8.2398    4.5589  -11.4416 C   0  0  0  0  0  0  0  0  0  0  0  0
   -7.9845    4.2684  -12.7621 C   0  0  0  0  0  0  0  0  0  0  0  0
   -6.9985    5.1360  -13.1610 N   0  0  0  0  0  0  0  0  0  0  0  0
   -6.3500    5.2184  -14.4197 C   0  0  0  0  0  0  0  0  0  0  0  0
   -5.0132    5.6363  -14.4562 C   0  0  0  0  0  0  0  0  0  0  0  0
   -4.3634    5.7131  -15.6705 C   0  0  0  0  0  0  0  0  0  0  0  0
   -4.9188    5.4471  -16.8587 N   0  0  0  0  0  0  0  0  0  0  0  0
   -6.2235    5.0607  -16.8396 C   0  0  0  0  0  0  0  0  0  0  0  0
   -6.9828    4.7773  -18.0123 C   0  0  0  0  0  0  0  0  0  0  0  0
   -8.2803    4.4321  -17.7259 C   0  0  0  0  0  0  0  0  0  0  0  0
   -8.5859    4.4677  -16.0504 S   0  0  0  0  0  0  0  0  0  0  0  0
   -6.9681    4.9226  -15.6571 C   0  0  0  0  0  0  0  0  0  0  0  0
   -6.7237    5.9141  -12.0537 C   0  0  0  0  0  0  0  0  0  0  0  0
   -7.4648    5.6015  -11.0163 N   0  0  0  0  0  0  0  0  0  0  0  0
  1  2  2  0
  2  3  1  0
  3  4  1  0
  4  5  2  0
  5  6  1  0
  6  7  2  0
  7  8  1  0
  8  9  1  0
  9 10  2  0
 10 11  1  0
 11 12  1  0
  3 13  1  0
 13 14  2  0
 14  1  1  0
 12  4  1  0
 12  8  2  0
M  END
>  <tags>  (282) 
openbind_xx01zvns2b_c1_knitwork_impure,BulkDock Fragalysis export,fragmenstein_placed,openbind_xx01zvns2b_c1_scaffolds

>  <placement_batch>  (282) 
openbind_xx01zvns2b_c1_knitwork_impure

>  <inspiration_score>  (282) 
None

>  <name>  (282) 
P64201

>  <HIPPO Pose ID>  (282) 
64201

>  <ref_pdb>  (282) 
Z1688a

>  <inchikey>  (282) 
CNRPKYSTYPPFIQ-UHFFFAOYSA-N

>  <alias>  (282) 
None

>  <ref_mols>  (282) 
Z0773b,Z1688a,Z1716a

>  <subsites>  (282) 
1 - Z4590/B/203/1,5 - Z0773/B/401/1

>  <distance_score>  (282) 
0.630077

>  <HIPPO Compound ID>  (282) 
65481

>  <smiles>  (282) 
c1cn(-c2ccnc3ccsc23)cn1

>  <energy_score>  (282) 
-23.436181

$$$$
P64245
     RDKit          3D

 19 20  0  0  0  0  0  0  0  0999 V2000
   -4.4016    5.8722  -12.5946 O   0  0  0  0  0  0  0  0  0  0  0  0
   -4.1988    6.1996  -13.6950 C   0  0  0  0  0  0  0  0  0  0  0  0
   -2.8076    6.1349  -14.3252 C   0  0  0  0  0  0  0  0  0  0  0  0
   -2.5958    4.8768  -15.1719 C   0  0  0  0  0  0  0  0  0  0  0  0
   -3.1688    4.9836  -16.5648 C   0  0  0  0  0  0  0  0  0  0  0  0
   -4.4500    4.4733  -16.8021 C   0  0  0  0  0  0  0  0  0  0  0  0
   -5.0620    4.6532  -18.0352 C   0  0  0  0  0  0  0  0  0  0  0  0
   -4.3793    5.3543  -19.0016 C   0  0  0  0  0  0  0  0  0  0  0  0
   -3.1268    5.8232  -18.8431 N   0  0  0  0  0  0  0  0  0  0  0  0
   -2.5408    5.6247  -17.6363 C   0  0  0  0  0  0  0  0  0  0  0  0
   -0.7970    6.3730  -17.4647 Br  0  0  0  0  0  0  0  0  0  0  0  0
   -5.1699    6.7164  -14.7815 N   0  0  0  0  0  0  0  0  0  0  0  0
   -6.5672    7.0250  -14.7099 C   0  0  0  0  0  0  0  0  0  0  0  0
   -7.3493    5.8870  -15.2875 C   0  0  0  0  0  0  0  0  0  0  0  0
   -7.7928    5.7736  -16.5502 C   0  0  0  0  0  0  0  0  0  0  0  0
   -8.5995    4.5317  -16.5788 C   0  0  0  0  0  0  0  0  0  0  0  0
   -9.0687    4.0237  -17.5808 O   0  0  0  0  0  0  0  0  0  0  0  0
   -8.6730    4.1003  -15.2660 N   0  0  0  0  0  0  0  0  0  0  0  0
   -7.7518    4.8148  -14.5105 N   0  0  0  0  0  0  0  0  0  0  0  0
  1  2  2  0
  2  3  1  0
  3  4  1  0
  4  5  1  0
  5  6  2  0
  6  7  1  0
  7  8  2  0
  8  9  1  0
  9 10  2  0
 10 11  1  0
  2 12  1  0
 12 13  1  0
 13 14  1  0
 14 15  2  0
 15 16  1  0
 16 17  2  0
 16 18  1  0
 18 19  1  0
 10  5  1  0
 19 14  1  0
M  END
>  <tags>  (283) 
openbind_xx01zvns2b_c1_knitwork_impure,BulkDock Fragalysis export,fragmenstein_placed,openbind_xx01zvns2b_c1_scaffolds

>  <placement_batch>  (283) 
openbind_xx01zvns2b_c1_knitwork_impure

>  <inspiration_score>  (283) 
None

>  <name>  (283) 
P64245

>  <HIPPO Pose ID>  (283) 
64245

>  <ref_pdb>  (283) 
Z0465a

>  <inchikey>  (283) 
FXFLOUMJYNENDV-UHFFFAOYSA-N

>  <alias>  (283) 
None

>  <ref_mols>  (283) 
Z0693a,Z0465a

>  <subsites>  (283) 
1 - Z4590/B/203/1

>  <distance_score>  (283) 
0.968932

>  <HIPPO Compound ID>  (283) 
55896

>  <smiles>  (283) 
O=C(CCc1cccnc1Br)NCc1cc(=O)[nH][nH]1

>  <energy_score>  (283) 
-13.168853

$$$$
P64483
     RDKit          3D

 23 25  0  0  0  0  0  0  0  0999 V2000
   -3.3882    9.3516  -17.5084 C   0  0  0  0  0  0  0  0  0  0  0  0
   -2.8074    8.1347  -16.7933 C   0  0  2  0  0  0  0  0  0  0  0  0
   -1.6122    7.5691  -17.5695 C   0  0  0  0  0  0  0  0  0  0  0  0
   -0.9032    6.4351  -16.8201 C   0  0  0  0  0  0  0  0  0  0  0  0
    0.4469    6.1115  -17.4157 C   0  0  0  0  0  0  0  0  0  0  0  0
    0.5721    5.6664  -18.7343 C   0  0  0  0  0  0  0  0  0  0  0  0
    1.8375    5.3798  -19.2261 C   0  0  0  0  0  0  0  0  0  0  0  0
    2.9721    5.4987  -18.5036 N   0  0  0  0  0  0  0  0  0  0  0  0
    2.8288    5.9182  -17.2289 C   0  0  0  0  0  0  0  0  0  0  0  0
    1.6084    6.2318  -16.6484 C   0  0  0  0  0  0  0  0  0  0  0  0
   -3.8441    7.1498  -16.5955 N   0  0  0  0  0  0  0  0  0  0  0  0
   -4.2168    6.3262  -15.3485 C   0  0  0  0  0  0  0  0  0  0  0  0
   -3.6984    6.2558  -14.3072 O   0  0  0  0  0  0  0  0  0  0  0  0
   -5.4960    5.5719  -15.6290 C   0  0  0  0  0  0  0  0  0  0  0  0
   -6.1697    4.9291  -14.6022 C   0  0  0  0  0  0  0  0  0  0  0  0
   -7.4152    4.3729  -14.8859 C   0  0  0  0  0  0  0  0  0  0  0  0
   -7.9583    4.4751  -16.1690 C   0  0  0  0  0  0  0  0  0  0  0  0
   -7.1523    5.0532  -17.1601 C   0  0  0  0  0  0  0  0  0  0  0  0
   -5.9542    5.6464  -16.9086 N   0  0  0  0  0  0  0  0  0  0  0  0
   -7.6386    5.1164  -18.5816 C   0  0  0  0  0  0  0  0  0  0  0  0
   -8.8859    4.2815  -18.8387 C   0  0  0  0  0  0  0  0  0  0  0  0
   -9.8522    4.3222  -17.6738 C   0  0  0  0  0  0  0  0  0  0  0  0
   -9.1970    3.8851  -16.4477 N   0  0  0  0  0  0  0  0  0  0  0  0
  2  1  1  6
  2  3  1  0
  3  4  1  0
  4  5  1  0
  5  6  2  0
  6  7  1  0
  7  8  2  0
  8  9  1  0
  9 10  2  0
  2 11  1  0
 11 12  1  0
 12 13  2  0
 12 14  1  0
 14 15  2  0
 15 16  1  0
 16 17  2  0
 17 18  1  0
 18 19  2  0
 18 20  1  0
 20 21  1  0
 21 22  1  0
 22 23  1  0
 10  5  1  0
 19 14  1  0
 23 17  1  0
M  END
>  <tags>  (284) 
openbind_xx01zvns2b_c1_knitwork_impure,fragmenstein_placed,openbind_xx01zvns2b_c1_scaffolds_chemok_bbok,BulkDock Fragalysis export,openbind_xx01zvns2b_c1_scaffolds

>  <placement_batch>  (284) 
openbind_xx01zvns2b_c1_knitwork_impure

>  <inspiration_score>  (284) 
None

>  <name>  (284) 
P64483

>  <HIPPO Pose ID>  (284) 
64483

>  <ref_pdb>  (284) 
Z0455a

>  <inchikey>  (284) 
ABCCHUVOZOZXSJ-UHFFFAOYSA-N

>  <alias>  (284) 
None

>  <ref_mols>  (284) 
Z0788b,Z0455a

>  <subsites>  (284) 
1 - Z4590/B/203/1,6 - Z0788/B/302/1

>  <distance_score>  (284) 
0.330028

>  <HIPPO Compound ID>  (284) 
112762

>  <smiles>  (284) 
C[C@H](CCc1ccncc1)NC(=O)c1ccc2c(n1)CCCN2

>  <energy_score>  (284) 
-11.076314

$$$$
P64615
     RDKit          3D

 10 11  0  0  0  0  0  0  0  0999 V2000
   -4.7911    5.2658  -19.3901 N   0  0  0  0  0  0  0  0  0  0  0  0
   -5.8033    5.2813  -18.4094 C   0  0  0  0  0  0  0  0  0  0  0  0
   -7.0170    4.6248  -18.6688 C   0  0  0  0  0  0  0  0  0  0  0  0
   -8.0355    4.5490  -17.7189 C   0  0  0  0  0  0  0  0  0  0  0  0
   -7.8680    5.0900  -16.4460 C   0  0  0  0  0  0  0  0  0  0  0  0
   -6.6565    5.7343  -16.1788 C   0  0  0  0  0  0  0  0  0  0  0  0
   -6.2181    6.3351  -15.0209 N   0  0  0  0  0  0  0  0  0  0  0  0
   -4.9606    6.8460  -15.1969 C   0  0  0  0  0  0  0  0  0  0  0  0
   -4.5669    6.5512  -16.4822 C   0  0  0  0  0  0  0  0  0  0  0  0
   -5.6302    5.8459  -17.1220 C   0  0  0  0  0  0  0  0  0  0  0  0
  1  2  1  0
  2  3  2  0
  3  4  1  0
  4  5  2  0
  5  6  1  0
  6  7  1  0
  7  8  1  0
  8  9  2  0
  9 10  1  0
 10  2  1  0
 10  6  2  0
M  END
>  <tags>  (285) 
openbind_xx01zvns2b_c1_knitwork_impure,BulkDock Fragalysis export,fragmenstein_placed,openbind_xx01zvns2b_c1_scaffolds

>  <placement_batch>  (285) 
openbind_xx01zvns2b_c1_knitwork_impure

>  <inspiration_score>  (285) 
None

>  <name>  (285) 
P64615

>  <HIPPO Pose ID>  (285) 
64615

>  <ref_pdb>  (285) 
Z2971a

>  <inchikey>  (285) 
QIJMCQLDEVOUOI-UHFFFAOYSA-N

>  <alias>  (285) 
None

>  <ref_mols>  (285) 
Z2971a,Z0089a

>  <subsites>  (285) 
1 - Z4590/B/203/1

>  <distance_score>  (285) 
0.629988

>  <HIPPO Compound ID>  (285) 
68536

>  <smiles>  (285) 
Nc1cccc2[nH]ccc12

>  <energy_score>  (285) 
-19.020088

$$$$
P64946
     RDKit          3D

 18 20  0  0  0  0  0  0  0  0999 V2000
  -16.3493    5.5425    0.0219 O   0  0  0  0  0  0  0  0  0  0  0  0
  -16.3882    4.6564    0.7826 C   0  0  0  0  0  0  0  0  0  0  0  0
  -17.5824    3.7962    1.2597 N   0  0  0  0  0  0  0  0  0  0  0  0
  -18.9224    3.7845    0.8418 C   0  0  0  0  0  0  0  0  0  0  0  0
  -19.5381    2.5254    0.8849 C   0  0  0  0  0  0  0  0  0  0  0  0
  -20.8809    2.3831    0.5655 C   0  0  0  0  0  0  0  0  0  0  0  0
  -21.6257    3.5085    0.2313 C   0  0  0  0  0  0  0  0  0  0  0  0
  -21.0666    4.7755    0.2111 C   0  0  0  0  0  0  0  0  0  0  0  0
  -21.9002    5.7928   -0.0494 N   0  0  0  0  0  0  0  0  0  0  0  0
  -21.4137    7.0487   -0.0130 C   0  0  0  0  0  0  0  0  0  0  0  0
  -20.0997    7.3428    0.2606 C   0  0  0  0  0  0  0  0  0  0  0  0
  -19.2408    6.2817    0.5279 C   0  0  0  0  0  0  0  0  0  0  0  0
  -19.6901    4.9409    0.5046 C   0  0  0  0  0  0  0  0  0  0  0  0
  -15.1987    4.2465    1.5201 C   0  0  0  0  0  0  0  0  0  0  0  0
  -13.9288    4.7911    1.5744 C   0  0  0  0  0  0  0  0  0  0  0  0
  -13.1800    3.9938    2.4725 C   0  0  0  0  0  0  0  0  0  0  0  0
  -14.0322    3.0092    2.9122 C   0  0  0  0  0  0  0  0  0  0  0  0
  -15.2564    3.1460    2.3396 O   0  0  0  0  0  0  0  0  0  0  0  0
  1  2  2  0
  2  3  1  0
  3  4  1  0
  4  5  2  0
  5  6  1  0
  6  7  2  0
  7  8  1  0
  8  9  2  0
  9 10  1  0
 10 11  2  0
 11 12  1  0
 12 13  2  0
  2 14  1  0
 14 15  2  0
 15 16  1  0
 16 17  2  0
 17 18  1  0
 13  4  1  0
 18 14  1  0
 13  8  1  0
M  END
>  <tags>  (286) 
openbind_xx01zvns2b_c1_knitwork_impure,BulkDock Fragalysis export,fragmenstein_placed,openbind_xx01zvns2b_c1_scaffolds

>  <placement_batch>  (286) 
openbind_xx01zvns2b_c1_knitwork_impure

>  <inspiration_score>  (286) 
None

>  <name>  (286) 
P64946

>  <HIPPO Pose ID>  (286) 
64946

>  <ref_pdb>  (286) 
Z0773b

>  <inchikey>  (286) 
RTLXUTAWQFBTKH-UHFFFAOYSA-N

>  <alias>  (286) 
None

>  <ref_mols>  (286) 
Z0422a,Z0773b

>  <subsites>  (286) 
1 - Z4590/B/203/1,5 - Z0773/B/401/1

>  <distance_score>  (286) 
0.77199

>  <HIPPO Compound ID>  (286) 
113258

>  <smiles>  (286) 
O=C(Nc1cccc2ncccc12)c1ccco1

>  <energy_score>  (286) 
-17.54209

$$$$
P64992
     RDKit          3D

 15 17  0  0  0  0  0  0  0  0999 V2000
   -9.1664    4.2438  -17.2656 C   0  0  0  0  0  0  0  0  0  0  0  0
   -8.7288    4.5590  -15.9829 C   0  0  0  0  0  0  0  0  0  0  0  0
   -7.4551    5.1046  -15.7424 C   0  0  0  0  0  0  0  0  0  0  0  0
   -7.0719    5.5645  -14.3361 C   0  0  1  0  0  0  0  0  0  0  0  0
   -8.1553    5.4789  -13.2519 C   0  0  0  0  0  0  0  0  0  0  0  0
   -7.3882    5.6228  -11.9484 C   0  0  0  0  0  0  0  0  0  0  0  0
   -5.9800    5.1610  -12.2894 C   0  0  0  0  0  0  0  0  0  0  0  0
   -6.0241    4.7640  -13.6964 N   0  0  0  0  0  0  0  0  0  0  0  0
   -6.5886    5.2721  -16.8729 C   0  0  0  0  0  0  0  0  0  0  0  0
   -5.2876    5.8179  -16.8177 C   0  0  0  0  0  0  0  0  0  0  0  0
   -4.5065    5.9427  -17.9653 C   0  0  0  0  0  0  0  0  0  0  0  0
   -5.0422    5.5225  -19.1615 C   0  0  0  0  0  0  0  0  0  0  0  0
   -6.2744    5.0055  -19.2714 N   0  0  0  0  0  0  0  0  0  0  0  0
   -7.0300    4.8958  -18.1696 C   0  0  0  0  0  0  0  0  0  0  0  0
   -8.3117    4.4135  -18.3419 C   0  0  0  0  0  0  0  0  0  0  0  0
  1  2  2  0
  2  3  1  0
  4  3  1  6
  4  5  1  0
  5  6  1  0
  6  7  1  0
  7  8  1  0
  3  9  2  0
  9 10  1  0
 10 11  2  0
 11 12  1  0
 12 13  2  0
 13 14  1  0
 14 15  2  0
 15  1  1  0
  8  4  1  0
 14  9  1  0
M  END
>  <tags>  (287) 
openbind_xx01zvns2b_c1_knitwork_impure,BulkDock Fragalysis export,fragmenstein_placed,openbind_xx01zvns2b_c1_scaffolds

>  <placement_batch>  (287) 
openbind_xx01zvns2b_c1_knitwork_impure

>  <inspiration_score>  (287) 
None

>  <name>  (287) 
P64992

>  <HIPPO Pose ID>  (287) 
64992

>  <ref_pdb>  (287) 
Z0429a

>  <inchikey>  (287) 
OFQGVINTJUCLFL-UHFFFAOYSA-N

>  <alias>  (287) 
None

>  <ref_mols>  (287) 
Z0827a,Z0429a

>  <subsites>  (287) 
1 - Z4590/B/203/1

>  <distance_score>  (287) 
0.81493

>  <HIPPO Compound ID>  (287) 
58248

>  <smiles>  (287) 
c1cc([C@H]2CCCN2)c2cccnc2c1

>  <energy_score>  (287) 
-19.382532

$$$$
P65049
     RDKit          3D

 14 16  0  0  0  0  0  0  0  0999 V2000
   -2.1361    4.2833  -19.2435 C   0  0  0  0  0  0  0  0  0  0  0  0
   -2.6517    5.6234  -18.7283 C   0  0  1  0  0  0  0  0  0  0  0  0
   -1.6552    6.6517  -19.0586 N   0  0  0  0  0  0  0  0  0  0  0  0
   -4.0120    5.9956  -19.3299 C   0  0  0  0  0  0  0  0  0  0  0  0
   -5.1938    5.3203  -18.7268 C   0  0  0  0  0  0  0  0  0  0  0  0
   -6.2138    4.8469  -19.4259 N   0  0  0  0  0  0  0  0  0  0  0  0
   -7.1790    4.6153  -18.5122 C   0  0  0  0  0  0  0  0  0  0  0  0
   -6.7268    4.8608  -17.2560 C   0  0  0  0  0  0  0  0  0  0  0  0
   -5.4558    5.2865  -17.3635 N   0  0  0  0  0  0  0  0  0  0  0  0
   -7.8445    4.5904  -16.2688 C   0  0  0  0  0  0  0  0  0  0  0  0
   -9.0424    4.1037  -17.1100 C   0  0  0  0  0  0  0  0  0  0  0  0
   -8.6006    4.2313  -18.6156 C   0  0  0  0  0  0  0  0  0  0  0  0
   -8.0693    5.4379  -15.0570 C   0  0  0  0  0  0  0  0  0  0  0  0
   -7.5574    4.0358  -14.9028 C   0  0  0  0  0  0  0  0  0  0  0  0
  2  1  1  6
  2  3  1  0
  2  4  1  0
  4  5  1  0
  5  6  2  0
  6  7  1  0
  7  8  2  0
  8  9  1  0
  8 10  1  0
 10 11  1  0
 11 12  1  0
 10 13  1  0
 13 14  1  0
  9  5  1  0
 14 10  1  0
 12  7  1  0
M  END
>  <tags>  (288) 
openbind_xx01zvns2b_c1_knitwork_impure,BulkDock Fragalysis export,fragmenstein_placed,openbind_xx01zvns2b_c1_scaffolds

>  <placement_batch>  (288) 
openbind_xx01zvns2b_c1_knitwork_impure

>  <inspiration_score>  (288) 
None

>  <name>  (288) 
P65049

>  <HIPPO Pose ID>  (288) 
65049

>  <ref_pdb>  (288) 
Z0089a

>  <inchikey>  (288) 
GQVTWVZGZGZHRG-UHFFFAOYSA-N

>  <alias>  (288) 
None

>  <ref_mols>  (288) 
Z0719a,Z0089a

>  <subsites>  (288) 
1 - Z4590/B/203/1

>  <distance_score>  (288) 
0.908035

>  <HIPPO Compound ID>  (288) 
113385

>  <smiles>  (288) 
C[C@@H](N)Cc1nc2c([nH]1)C1(CC2)CC1

>  <energy_score>  (288) 
-40.736472

$$$$
P65060
     RDKit          3D

 21 23  0  0  0  0  0  0  0  0999 V2000
   -1.7580    4.4378  -19.2634 C   0  0  0  0  0  0  0  0  0  0  0  0
   -2.6421    5.6417  -19.5532 C   0  0  2  0  0  0  0  0  0  0  0  0
   -2.2173    6.9629  -18.9029 C   0  0  0  0  0  0  0  0  0  0  0  0
   -0.9254    7.4831  -19.4362 C   0  0  0  0  0  0  0  0  0  0  0  0
    0.2956    7.5822  -18.8038 C   0  0  0  0  0  0  0  0  0  0  0  0
    1.1420    8.1108  -19.7371 N   0  0  0  0  0  0  0  0  0  0  0  0
    0.4201    8.3161  -20.8776 C   0  0  0  0  0  0  0  0  0  0  0  0
   -0.8316    7.9495  -20.7276 N   0  0  0  0  0  0  0  0  0  0  0  0
   -4.0366    5.3178  -19.3257 N   0  0  0  0  0  0  0  0  0  0  0  0
   -4.8618    5.0959  -18.2808 C   0  0  0  0  0  0  0  0  0  0  0  0
   -6.1015    4.9275  -18.7626 N   0  0  0  0  0  0  0  0  0  0  0  0
   -7.1363    4.6478  -17.9881 C   0  0  0  0  0  0  0  0  0  0  0  0
   -8.3064    4.4477  -18.5788 N   0  0  0  0  0  0  0  0  0  0  0  0
   -9.3747    4.1519  -17.8299 C   0  0  0  0  0  0  0  0  0  0  0  0
   -9.3154    4.0435  -16.4601 C   0  0  0  0  0  0  0  0  0  0  0  0
   -8.1078    4.2634  -15.8229 C   0  0  0  0  0  0  0  0  0  0  0  0
   -6.9901    4.5679  -16.6012 C   0  0  0  0  0  0  0  0  0  0  0  0
   -5.7199    4.7644  -16.0592 C   0  0  0  0  0  0  0  0  0  0  0  0
   -4.6312    5.0170  -16.9139 C   0  0  0  0  0  0  0  0  0  0  0  0
   -3.3520    5.1533  -16.2988 C   0  0  0  0  0  0  0  0  0  0  0  0
   -2.3434    5.2597  -15.7318 N   0  0  0  0  0  0  0  0  0  0  0  0
  2  1  1  1
  2  3  1  0
  3  4  1  0
  4  5  2  0
  5  6  1  0
  6  7  1  0
  7  8  2  0
  2  9  1  0
  9 10  1  0
 10 11  2  0
 11 12  1  0
 12 13  2  0
 13 14  1  0
 14 15  2  0
 15 16  1  0
 16 17  2  0
 17 18  1  0
 18 19  2  0
 19 20  1  0
 20 21  3  0
  8  4  1  0
 19 10  1  0
 17 12  1  0
M  END
>  <tags>  (289) 
openbind_xx01zvns2b_c1_knitwork_impure,fragmenstein_placed,openbind_xx01zvns2b_c1_scaffolds_chemok_bbok,BulkDock Fragalysis export,openbind_xx01zvns2b_c1_scaffolds

>  <placement_batch>  (289) 
openbind_xx01zvns2b_c1_knitwork_impure

>  <inspiration_score>  (289) 
None

>  <name>  (289) 
P65060

>  <HIPPO Pose ID>  (289) 
65060

>  <ref_pdb>  (289) 
Z0089a

>  <inchikey>  (289) 
XYOFFROFSMOCNR-UHFFFAOYSA-N

>  <alias>  (289) 
None

>  <ref_mols>  (289) 
Z0719a,Z0089a

>  <subsites>  (289) 
1 - Z4590/B/203/1

>  <distance_score>  (289) 
0.959985

>  <HIPPO Compound ID>  (289) 
48749

>  <smiles>  (289) 
C[C@H](Cc1c[nH]cn1)Nc1nc2ncccc2cc1C#N

>  <energy_score>  (289) 
-12.699866

$$$$
P65140
     RDKit          3D

 19 20  0  0  0  0  0  0  0  0999 V2000
   -8.1093    4.7205  -16.9985 C   0  0  0  0  0  0  0  0  0  0  0  0
   -7.0779    5.5623  -16.2437 C   0  0  2  0  0  0  0  0  0  0  0  0
   -6.0847    6.2262  -16.9967 O   0  0  0  0  0  0  0  0  0  0  0  0
   -5.1829    5.5995  -17.9014 C   0  0  0  0  0  0  0  0  0  0  0  0
   -5.8378    4.7082  -18.9336 C   0  0  0  0  0  0  0  0  0  0  0  0
   -4.5521    6.7700  -18.6841 C   0  0  0  0  0  0  0  0  0  0  0  0
   -4.0668    4.8466  -17.1822 C   0  0  0  0  0  0  0  0  0  0  0  0
   -6.7263    4.8136  -14.9186 C   0  0  0  0  0  0  0  0  0  0  0  0
   -6.0870    3.8317  -14.8899 O   0  0  0  0  0  0  0  0  0  0  0  0
   -7.4709    5.5763  -13.7647 N   0  0  0  0  0  0  0  0  0  0  0  0
   -7.6408    5.2477  -12.4562 C   0  0  0  0  0  0  0  0  0  0  0  0
   -8.1789    6.2950  -11.5896 C   0  0  0  0  0  0  0  0  0  0  0  0
   -8.4224    6.0182  -10.2971 C   0  0  0  0  0  0  0  0  0  0  0  0
   -8.1906    4.7293   -9.8275 N   0  0  0  0  0  0  0  0  0  0  0  0
   -8.3864    4.2040   -8.5766 C   0  0  0  0  0  0  0  0  0  0  0  0
   -8.0192    2.8816   -8.6772 C   0  0  0  0  0  0  0  0  0  0  0  0
   -7.5721    2.5950   -9.9388 N   0  0  0  0  0  0  0  0  0  0  0  0
   -7.6890    3.7086  -10.6210 C   0  0  0  0  0  0  0  0  0  0  0  0
   -7.3943    4.0119  -11.9785 C   0  0  0  0  0  0  0  0  0  0  0  0
  2  1  1  6
  2  3  1  0
  3  4  1  0
  4  5  1  0
  4  6  1  0
  4  7  1  0
  2  8  1  0
  8  9  2  0
  8 10  1  0
 10 11  1  0
 11 12  1  0
 12 13  2  0
 13 14  1  0
 14 15  1  0
 15 16  2  0
 16 17  1  0
 17 18  2  0
 18 19  1  0
 19 11  2  0
 18 14  1  0
M  END
>  <tags>  (290) 
openbind_xx01zvns2b_c1_knitwork_impure,fragmenstein_placed,openbind_xx01zvns2b_c1_scaffolds_chemok_bbok,BulkDock Fragalysis export,openbind_xx01zvns2b_c1_scaffolds

>  <placement_batch>  (290) 
openbind_xx01zvns2b_c1_knitwork_impure

>  <inspiration_score>  (290) 
None

>  <name>  (290) 
P65140

>  <HIPPO Pose ID>  (290) 
65140

>  <ref_pdb>  (290) 
Z1495a

>  <inchikey>  (290) 
ICULPCWAIXXDSL-UHFFFAOYSA-N

>  <alias>  (290) 
None

>  <ref_mols>  (290) 
Z1046b,Z1495a

>  <subsites>  (290) 
1 - Z4590/B/203/1

>  <distance_score>  (290) 
0.901135

>  <HIPPO Compound ID>  (290) 
118335

>  <smiles>  (290) 
C[C@H](OC(C)(C)C)C(=O)Nc1ccn2ccnc2c1

>  <energy_score>  (290) 
-21.347291

$$$$
P65141
     RDKit          3D

 19 20  0  0  0  0  0  0  0  0999 V2000
   -4.4699    6.7297  -20.2598 C   0  0  0  0  0  0  0  0  0  0  0  0
   -4.9122    6.1605  -19.1339 C   0  0  0  0  0  0  0  0  0  0  0  0
   -6.3590    6.1590  -18.7300 C   0  0  0  0  0  0  0  0  0  0  0  0
   -6.8777    4.7712  -18.3682 C   0  0  0  0  0  0  0  0  0  0  0  0
   -7.6271    4.7665  -17.1599 O   0  0  0  0  0  0  0  0  0  0  0  0
   -7.0024    5.2262  -15.9641 C   0  0  2  0  0  0  0  0  0  0  0  0
   -5.4841    5.0745  -15.8532 C   0  0  0  0  0  0  0  0  0  0  0  0
   -7.5833    4.4342  -14.7818 C   0  0  0  0  0  0  0  0  0  0  0  0
   -7.8213    3.2932  -14.8514 O   0  0  0  0  0  0  0  0  0  0  0  0
   -7.6583    5.4096  -13.5663 N   0  0  0  0  0  0  0  0  0  0  0  0
   -7.9326    5.1679  -12.2573 C   0  0  0  0  0  0  0  0  0  0  0  0
   -7.8922    6.3132  -11.3520 C   0  0  0  0  0  0  0  0  0  0  0  0
   -8.0477    6.1081  -10.0326 C   0  0  0  0  0  0  0  0  0  0  0  0
   -8.2640    4.8129   -9.5704 N   0  0  0  0  0  0  0  0  0  0  0  0
   -8.4107    4.3562   -8.2864 C   0  0  0  0  0  0  0  0  0  0  0  0
   -8.6010    2.9981   -8.4033 C   0  0  0  0  0  0  0  0  0  0  0  0
   -8.5890    2.6165   -9.7157 N   0  0  0  0  0  0  0  0  0  0  0  0
   -8.3593    3.7095  -10.4038 C   0  0  0  0  0  0  0  0  0  0  0  0
   -8.1787    3.9245  -11.7958 C   0  0  0  0  0  0  0  0  0  0  0  0
  1  2  2  0
  2  3  1  0
  3  4  1  0
  4  5  1  0
  5  6  1  0
  6  7  1  6
  6  8  1  0
  8  9  2  0
  8 10  1  0
 10 11  1  0
 11 12  1  0
 12 13  2  0
 13 14  1  0
 14 15  1  0
 15 16  2  0
 16 17  1  0
 17 18  2  0
 18 19  1  0
 19 11  2  0
 18 14  1  0
M  END
>  <tags>  (291) 
openbind_xx01zvns2b_c1_knitwork_impure,fragmenstein_placed,openbind_xx01zvns2b_c1_scaffolds_chemok_bbok,BulkDock Fragalysis export,openbind_xx01zvns2b_c1_scaffolds

>  <placement_batch>  (291) 
openbind_xx01zvns2b_c1_knitwork_impure

>  <inspiration_score>  (291) 
None

>  <name>  (291) 
P65141

>  <HIPPO Pose ID>  (291) 
65141

>  <ref_pdb>  (291) 
Z1495a

>  <inchikey>  (291) 
USLQWDDSHRJFIX-UHFFFAOYSA-N

>  <alias>  (291) 
None

>  <ref_mols>  (291) 
Z1046b,Z1495a

>  <subsites>  (291) 
1 - Z4590/B/203/1

>  <distance_score>  (291) 
0.839739

>  <HIPPO Compound ID>  (291) 
118342

>  <smiles>  (291) 
C=CCCO[C@H](C)C(=O)Nc1ccn2ccnc2c1

>  <energy_score>  (291) 
-33.434375

$$$$
P65161
     RDKit          3D

 19 20  0  0  0  0  0  0  0  0999 V2000
   -2.1257    9.5762  -20.3913 C   0  0  0  0  0  0  0  0  0  0  0  0
   -2.0722    8.1907  -21.0233 C   0  0  0  0  0  0  0  0  0  0  0  0
   -1.7049    7.0986  -20.0104 C   0  0  2  0  0  0  0  0  0  0  0  0
   -1.4038    5.7486  -20.6896 C   0  0  0  0  0  0  0  0  0  0  0  0
   -2.4885    5.2589  -21.4817 O   0  0  0  0  0  0  0  0  0  0  0  0
   -2.7455    6.9233  -19.0108 N   0  0  0  0  0  0  0  0  0  0  0  0
   -2.7632    6.0686  -17.7106 C   0  0  0  0  0  0  0  0  0  0  0  0
   -1.9170    5.4380  -17.2075 O   0  0  0  0  0  0  0  0  0  0  0  0
   -4.1330    6.2145  -17.0248 C   0  0  1  0  0  0  0  0  0  0  0  0
   -4.5020    7.6791  -16.7700 C   0  0  0  0  0  0  0  0  0  0  0  0
   -5.2162    5.4717  -17.6607 N   0  0  0  0  0  0  0  0  0  0  0  0
   -5.3115    5.0580  -18.9553 C   0  0  0  0  0  0  0  0  0  0  0  0
   -6.4808    4.5296  -19.2134 N   0  0  0  0  0  0  0  0  0  0  0  0
   -7.1653    4.5529  -18.0318 C   0  0  0  0  0  0  0  0  0  0  0  0
   -8.4591    4.1109  -17.7381 C   0  0  0  0  0  0  0  0  0  0  0  0
   -8.9045    4.1903  -16.4158 C   0  0  0  0  0  0  0  0  0  0  0  0
   -8.0860    4.6954  -15.4066 C   0  0  0  0  0  0  0  0  0  0  0  0
   -6.8060    5.1748  -15.6908 C   0  0  0  0  0  0  0  0  0  0  0  0
   -6.3794    5.0973  -17.0211 C   0  0  0  0  0  0  0  0  0  0  0  0
  1  2  1  0
  3  2  1  6
  3  4  1  0
  4  5  1  0
  3  6  1  0
  6  7  1  0
  7  8  2  0
  7  9  1  0
  9 10  1  6
  9 11  1  0
 11 12  1  0
 12 13  2  0
 13 14  1  0
 14 15  2  0
 15 16  1  0
 16 17  2  0
 17 18  1  0
 18 19  2  0
 19 11  1  0
 19 14  1  0
M  END
>  <tags>  (292) 
openbind_xx01zvns2b_c1_knitwork_impure,fragmenstein_placed,openbind_xx01zvns2b_c1_scaffolds_chemok_bbok,BulkDock Fragalysis export,openbind_xx01zvns2b_c1_scaffolds

>  <placement_batch>  (292) 
openbind_xx01zvns2b_c1_knitwork_impure

>  <inspiration_score>  (292) 
None

>  <name>  (292) 
P65161

>  <HIPPO Pose ID>  (292) 
65161

>  <ref_pdb>  (292) 
Z3880a

>  <inchikey>  (292) 
DFYBXILNMWHGOO-UHFFFAOYSA-N

>  <alias>  (292) 
None

>  <ref_mols>  (292) 
Z0101a,Z3880a

>  <subsites>  (292) 
1 - Z4590/B/203/1

>  <distance_score>  (292) 
0.828862

>  <HIPPO Compound ID>  (292) 
65345

>  <smiles>  (292) 
CC[C@H](CO)NC(=O)[C@@H](C)n1cnc2ccccc21

>  <energy_score>  (292) 
-2.689459

$$$$
P65175
     RDKit          3D

 15 17  0  0  0  0  0  0  0  0999 V2000
   -5.5975    4.8391  -13.7926 C   0  0  0  0  0  0  0  0  0  0  0  0
   -4.7067    5.2913  -14.7605 C   0  0  0  0  0  0  0  0  0  0  0  0
   -4.9651    5.3928  -16.0798 N   0  0  0  0  0  0  0  0  0  0  0  0
   -6.2065    4.9752  -16.4461 C   0  0  0  0  0  0  0  0  0  0  0  0
   -6.8376    4.9411  -17.7169 C   0  0  0  0  0  0  0  0  0  0  0  0
   -6.3226    5.4373  -19.0246 C   0  0  1  0  0  0  0  0  0  0  0  0
   -6.2736    6.9752  -19.0051 C   0  0  0  0  0  0  0  0  0  0  0  0
   -5.4533    7.5167  -20.1580 C   0  0  0  0  0  0  0  0  0  0  0  0
   -4.0394    6.9427  -20.1372 C   0  0  0  0  0  0  0  0  0  0  0  0
   -3.9094    5.6860  -19.2761 C   0  0  0  0  0  0  0  0  0  0  0  0
   -5.0545    4.7910  -19.4037 N   0  0  0  0  0  0  0  0  0  0  0  0
   -8.1196    4.4722  -17.4742 C   0  0  0  0  0  0  0  0  0  0  0  0
   -8.3185    4.2343  -16.1494 O   0  0  0  0  0  0  0  0  0  0  0  0
   -7.1473    4.5295  -15.5277 C   0  0  0  0  0  0  0  0  0  0  0  0
   -6.8801    4.4414  -14.1690 C   0  0  0  0  0  0  0  0  0  0  0  0
  1  2  2  0
  2  3  1  0
  3  4  2  0
  4  5  1  0
  6  5  1  1
  6  7  1  0
  7  8  1  0
  8  9  1  0
  9 10  1  0
 10 11  1  0
  5 12  2  0
 12 13  1  0
 13 14  1  0
 14 15  2  0
 15  1  1  0
 14  4  1  0
 11  6  1  0
M  END
>  <tags>  (293) 
openbind_xx01zvns2b_c1_knitwork_impure,BulkDock Fragalysis export,fragmenstein_placed,openbind_xx01zvns2b_c1_scaffolds

>  <placement_batch>  (293) 
openbind_xx01zvns2b_c1_knitwork_impure

>  <inspiration_score>  (293) 
None

>  <name>  (293) 
P65175

>  <HIPPO Pose ID>  (293) 
65175

>  <ref_pdb>  (293) 
Z0819a

>  <inchikey>  (293) 
BRWPSDCOLBHWIR-UHFFFAOYSA-N

>  <alias>  (293) 
None

>  <ref_mols>  (293) 
Z0773b,Z1688a,Z1716a,Z0819a

>  <subsites>  (293) 
1 - Z4590/B/203/1,5 - Z0773/B/401/1

>  <distance_score>  (293) 
0.970181

>  <HIPPO Compound ID>  (293) 
59454

>  <smiles>  (293) 
c1cnc2c([C@H]3CCCCN3)coc2c1

>  <energy_score>  (293) 
-18.982068

$$$$
P65225
     RDKit          3D

 14 16  0  0  0  0  0  0  0  0999 V2000
   -3.3599    5.8851  -17.0097 O   0  0  0  0  0  0  0  0  0  0  0  0
   -4.5233    5.5586  -16.8220 C   0  0  0  0  0  0  0  0  0  0  0  0
   -5.1240    5.1802  -15.4674 C   0  0  0  0  0  0  0  0  0  0  0  0
   -6.5363    4.8422  -15.8210 C   0  0  0  0  0  0  0  0  0  0  0  0
   -7.5753    4.4507  -14.9983 C   0  0  0  0  0  0  0  0  0  0  0  0
   -8.8030    4.1557  -15.5926 C   0  0  0  0  0  0  0  0  0  0  0  0
   -8.9667    4.2218  -16.9843 C   0  0  0  0  0  0  0  0  0  0  0  0
   -7.9163    4.6456  -17.8007 C   0  0  0  0  0  0  0  0  0  0  0  0
   -6.7205    4.9822  -17.1939 C   0  0  0  0  0  0  0  0  0  0  0  0
   -5.5550    5.5070  -17.7685 N   0  0  0  0  0  0  0  0  0  0  0  0
   -5.5294    6.1076  -19.1131 C   0  0  0  0  0  0  0  0  0  0  0  0
   -4.7430    7.4208  -19.2821 C   0  0  0  0  0  0  0  0  0  0  0  0
   -3.6057    6.6628  -19.8390 N   0  0  0  0  0  0  0  0  0  0  0  0
   -4.5117    5.5222  -20.0954 C   0  0  0  0  0  0  0  0  0  0  0  0
  1  2  2  0
  2  3  1  0
  3  4  1  0
  4  5  2  0
  5  6  1  0
  6  7  2  0
  7  8  1  0
  8  9  2  0
  9 10  1  0
 10 11  1  0
 11 12  1  0
 12 13  1  0
 13 14  1  0
 10  2  1  0
 14 11  1  0
  9  4  1  0
M  END
>  <tags>  (294) 
openbind_xx01zvns2b_c1_knitwork_impure,BulkDock Fragalysis export,fragmenstein_placed,openbind_xx01zvns2b_c1_scaffolds

>  <placement_batch>  (294) 
openbind_xx01zvns2b_c1_knitwork_impure

>  <inspiration_score>  (294) 
None

>  <name>  (294) 
P65225

>  <HIPPO Pose ID>  (294) 
65225

>  <ref_pdb>  (294) 
Z3596a

>  <inchikey>  (294) 
FPIJDRFXWAQJQJ-UHFFFAOYSA-N

>  <alias>  (294) 
None

>  <ref_mols>  (294) 
Z3596a,Z0990a

>  <subsites>  (294) 
1 - Z4590/B/203/1

>  <distance_score>  (294) 
0.904812

>  <HIPPO Compound ID>  (294) 
61807

>  <smiles>  (294) 
O=C1Cc2ccccc2N1C1CNC1

>  <energy_score>  (294) 
-10.108321

$$$$
P65237
     RDKit          3D

 15 17  0  0  0  0  0  0  0  0999 V2000
   -3.4325    5.8796  -16.7683 O   0  0  0  0  0  0  0  0  0  0  0  0
   -4.5740    5.4494  -16.6966 C   0  0  0  0  0  0  0  0  0  0  0  0
   -5.3178    5.1980  -15.3876 C   0  0  0  0  0  0  0  0  0  0  0  0
   -6.6791    4.8084  -15.8592 C   0  0  0  0  0  0  0  0  0  0  0  0
   -7.8007    4.5100  -15.1085 C   0  0  0  0  0  0  0  0  0  0  0  0
   -8.9660    4.1691  -15.7920 C   0  0  0  0  0  0  0  0  0  0  0  0
   -8.9944    4.1277  -17.1948 C   0  0  0  0  0  0  0  0  0  0  0  0
   -7.8551    4.4400  -17.9406 C   0  0  0  0  0  0  0  0  0  0  0  0
   -6.7039    4.7773  -17.2537 C   0  0  0  0  0  0  0  0  0  0  0  0
   -5.4402    5.1397  -17.7510 N   0  0  0  0  0  0  0  0  0  0  0  0
   -5.2087    5.4703  -19.1508 C   0  0  1  0  0  0  0  0  0  0  0  0
   -5.4478    6.9591  -19.4165 C   0  0  0  0  0  0  0  0  0  0  0  0
   -4.0732    7.5215  -19.7152 C   0  0  0  0  0  0  0  0  0  0  0  0
   -3.4090    6.4360  -20.4384 N   0  0  0  0  0  0  0  0  0  0  0  0
   -3.7729    5.2318  -19.6636 C   0  0  0  0  0  0  0  0  0  0  0  0
  1  2  2  0
  2  3  1  0
  3  4  1  0
  4  5  2  0
  5  6  1  0
  6  7  2  0
  7  8  1  0
  8  9  2  0
  9 10  1  0
 11 10  1  1
 11 12  1  0
 12 13  1  0
 13 14  1  0
 14 15  1  0
 10  2  1  0
 15 11  1  0
  9  4  1  0
M  END
>  <tags>  (295) 
openbind_xx01zvns2b_c1_knitwork_impure,BulkDock Fragalysis export,fragmenstein_placed,openbind_xx01zvns2b_c1_scaffolds

>  <placement_batch>  (295) 
openbind_xx01zvns2b_c1_knitwork_impure

>  <inspiration_score>  (295) 
None

>  <name>  (295) 
P65237

>  <HIPPO Pose ID>  (295) 
65237

>  <ref_pdb>  (295) 
Z3596a

>  <inchikey>  (295) 
FDYDGTDZUXFSHV-UHFFFAOYSA-N

>  <alias>  (295) 
None

>  <ref_mols>  (295) 
Z3596a,Z0990a

>  <subsites>  (295) 
1 - Z4590/B/203/1

>  <distance_score>  (295) 
0.769375

>  <HIPPO Compound ID>  (295) 
61815

>  <smiles>  (295) 
O=C1Cc2ccccc2N1[C@H]1CCNC1

>  <energy_score>  (295) 
-16.509774

$$$$
P65252
     RDKit          3D

 18 20  0  0  0  0  0  0  0  0999 V2000
   -7.3225    4.7150  -13.0505 C   0  0  0  0  0  0  0  0  0  0  0  0
   -7.5825    4.6440  -14.5184 C   0  0  0  0  0  0  0  0  0  0  0  0
   -8.8499    4.3311  -15.0028 C   0  0  0  0  0  0  0  0  0  0  0  0
   -9.0811    4.2043  -16.3737 C   0  0  0  0  0  0  0  0  0  0  0  0
   -8.0636    4.4369  -17.3088 C   0  0  0  0  0  0  0  0  0  0  0  0
   -8.3653    4.0780  -18.7247 C   0  0  0  0  0  0  0  0  0  0  0  0
   -6.8504    4.9086  -16.8259 C   0  0  0  0  0  0  0  0  0  0  0  0
   -6.5948    4.9204  -15.4526 C   0  0  0  0  0  0  0  0  0  0  0  0
   -5.1582    5.2557  -15.2105 C   0  0  0  0  0  0  0  0  0  0  0  0
   -4.6420    5.5460  -16.6102 C   0  0  0  0  0  0  0  0  0  0  0  0
   -3.4928    5.8667  -16.8653 O   0  0  0  0  0  0  0  0  0  0  0  0
   -5.7205    5.4297  -17.4895 N   0  0  0  0  0  0  0  0  0  0  0  0
   -5.7749    6.0189  -18.8223 C   0  0  0  0  0  0  0  0  0  0  0  0
   -5.4026    7.5117  -18.8716 C   0  0  0  0  0  0  0  0  0  0  0  0
   -3.9620    7.8075  -19.2781 C   0  0  0  0  0  0  0  0  0  0  0  0
   -3.5423    7.0153  -20.4349 N   0  0  0  0  0  0  0  0  0  0  0  0
   -3.5909    5.5972  -20.0682 C   0  0  0  0  0  0  0  0  0  0  0  0
   -5.0340    5.1884  -19.8559 C   0  0  0  0  0  0  0  0  0  0  0  0
  1  2  1  0
  2  3  2  0
  3  4  1  0
  4  5  2  0
  5  6  1  0
  5  7  1  0
  7  8  2  0
  8  9  1  0
  9 10  1  0
 10 11  2  0
 10 12  1  0
 12 13  1  0
 13 14  1  0
 14 15  1  0
 15 16  1  0
 16 17  1  0
 17 18  1  0
  8  2  1  0
 18 13  1  0
 12  7  1  0
M  END
>  <tags>  (296) 
openbind_xx01zvns2b_c1_knitwork_impure,BulkDock Fragalysis export,fragmenstein_placed,openbind_xx01zvns2b_c1_scaffolds

>  <placement_batch>  (296) 
openbind_xx01zvns2b_c1_knitwork_impure

>  <inspiration_score>  (296) 
None

>  <name>  (296) 
P65252

>  <HIPPO Pose ID>  (296) 
65252

>  <ref_pdb>  (296) 
Z3596a

>  <inchikey>  (296) 
ARIBPNACTHQUIK-UHFFFAOYSA-N

>  <alias>  (296) 
None

>  <ref_mols>  (296) 
Z3596a,Z0990a

>  <subsites>  (296) 
1 - Z4590/B/203/1

>  <distance_score>  (296) 
0.867649

>  <HIPPO Compound ID>  (296) 
15872

>  <smiles>  (296) 
Cc1ccc(C)c2c1CC(=O)N2C1CCNCC1

>  <energy_score>  (296) 
-18.331832

$$$$
P65306
     RDKit          3D

 14 16  0  0  0  0  0  0  0  0999 V2000
   -4.6910    6.1042  -12.7453 C   0  0  0  0  0  0  0  0  0  0  0  0
   -3.5779    6.5508  -13.4628 C   0  0  0  0  0  0  0  0  0  0  0  0
   -3.7319    6.4117  -14.7765 N   0  0  0  0  0  0  0  0  0  0  0  0
   -4.9635    5.8316  -14.9378 N   0  0  0  0  0  0  0  0  0  0  0  0
   -5.4226    5.4892  -16.2558 C   0  0  0  0  0  0  0  0  0  0  0  0
   -4.5359    5.7244  -17.2667 N   0  0  0  0  0  0  0  0  0  0  0  0
   -4.9126    5.4048  -18.5121 C   0  0  0  0  0  0  0  0  0  0  0  0
   -6.0821    4.8797  -18.8598 N   0  0  0  0  0  0  0  0  0  0  0  0
   -6.9275    4.6714  -17.8513 C   0  0  0  0  0  0  0  0  0  0  0  0
   -6.6659    4.9509  -16.5207 C   0  0  0  0  0  0  0  0  0  0  0  0
   -7.8565    4.6217  -15.6900 C   0  0  0  0  0  0  0  0  0  0  0  0
   -8.7710    3.8560  -16.6563 C   0  0  0  0  0  0  0  0  0  0  0  0
   -8.3057    4.1376  -18.0817 C   0  0  0  0  0  0  0  0  0  0  0  0
   -5.5702    5.6646  -13.7079 C   0  0  0  0  0  0  0  0  0  0  0  0
  1  2  1  0
  2  3  2  0
  3  4  1  0
  4  5  1  0
  5  6  2  0
  6  7  1  0
  7  8  2  0
  8  9  1  0
  9 10  2  0
 10 11  1  0
 11 12  1  0
 12 13  1  0
  4 14  1  0
 14  1  2  0
 10  5  1  0
 13  9  1  0
M  END
>  <tags>  (297) 
openbind_xx01zvns2b_c1_knitwork_impure,fragmenstein_placed,openbind_xx01zvns2b_c1_scaffolds_chemok_bbok,BulkDock Fragalysis export,openbind_xx01zvns2b_c1_scaffolds

>  <placement_batch>  (297) 
openbind_xx01zvns2b_c1_knitwork_impure

>  <inspiration_score>  (297) 
None

>  <name>  (297) 
P65306

>  <HIPPO Pose ID>  (297) 
65306

>  <ref_pdb>  (297) 
Z1342a

>  <inchikey>  (297) 
LVKLKYYOOQHENY-UHFFFAOYSA-N

>  <alias>  (297) 
None

>  <ref_mols>  (297) 
Z0875a,Z1342a

>  <subsites>  (297) 
1 - Z4590/B/203/1

>  <distance_score>  (297) 
0.781585

>  <HIPPO Compound ID>  (297) 
118458

>  <smiles>  (297) 
c1cnn(-c2ncnc3c2CCC3)c1

>  <energy_score>  (297) 
-10.352881

$$$$
P65622
     RDKit          3D

 13 14  0  0  0  0  0  0  0  0999 V2000
   -6.2156    4.9120  -12.3636 C   0  0  0  0  0  0  0  0  0  0  0  0
   -7.0843    4.3273  -13.4826 C   0  0  1  0  0  0  0  0  0  0  0  0
   -8.4229    4.0876  -12.9263 N   0  0  0  0  0  0  0  0  0  0  0  0
   -7.1008    5.3147  -14.6680 C   0  0  0  0  0  0  0  0  0  0  0  0
   -7.5765    4.8149  -16.0113 C   0  0  0  0  0  0  0  0  0  0  0  0
   -8.9167    4.4163  -16.1995 C   0  0  0  0  0  0  0  0  0  0  0  0
   -9.4466    4.1018  -17.4590 C   0  0  0  0  0  0  0  0  0  0  0  0
   -8.6554    4.1503  -18.6037 C   0  0  0  0  0  0  0  0  0  0  0  0
   -7.3337    4.5155  -18.3973 C   0  0  0  0  0  0  0  0  0  0  0  0
   -6.3650    4.6362  -19.3463 O   0  0  0  0  0  0  0  0  0  0  0  0
   -5.2791    5.0516  -18.6466 C   0  0  0  0  0  0  0  0  0  0  0  0
   -5.4554    5.2042  -17.3517 N   0  0  0  0  0  0  0  0  0  0  0  0
   -6.7749    4.8445  -17.1709 C   0  0  0  0  0  0  0  0  0  0  0  0
  2  1  1  1
  2  3  1  0
  2  4  1  0
  4  5  1  0
  5  6  2  0
  6  7  1  0
  7  8  2  0
  8  9  1  0
  9 10  1  0
 10 11  1  0
 11 12  2  0
 12 13  1  0
 13  5  1  0
 13  9  2  0
M  END
>  <tags>  (298) 
openbind_xx01zvns2b_c1_knitwork_impure,BulkDock Fragalysis export,fragmenstein_placed,openbind_xx01zvns2b_c1_scaffolds

>  <placement_batch>  (298) 
openbind_xx01zvns2b_c1_knitwork_impure

>  <inspiration_score>  (298) 
None

>  <name>  (298) 
P65622

>  <HIPPO Pose ID>  (298) 
65622

>  <ref_pdb>  (298) 
Z0089a

>  <inchikey>  (298) 
PEMNCQLYCZXYQJ-UHFFFAOYSA-N

>  <alias>  (298) 
None

>  <ref_mols>  (298) 
Z3515a,Z4008a,Z1688a,Z0089a

>  <subsites>  (298) 
1 - Z4590/B/203/1

>  <distance_score>  (298) 
0.589817

>  <HIPPO Compound ID>  (298) 
61016

>  <smiles>  (298) 
C[C@@H](N)Cc1cccc2ocnc12

>  <energy_score>  (298) 
-19.652785

$$$$
P65647
     RDKit          3D

 15 16  0  0  0  0  0  0  0  0999 V2000
   -6.8932    1.5011  -12.9602 O   0  0  0  0  0  0  0  0  0  0  0  0
   -6.1772    2.4116  -13.1173 C   0  0  0  0  0  0  0  0  0  0  0  0
   -4.6871    2.3235  -12.8006 C   0  0  0  0  0  0  0  0  0  0  0  0
   -4.1383    3.7169  -11.8448 Cl  0  0  0  0  0  0  0  0  0  0  0  0
   -6.4496    3.8109  -13.7324 N   0  0  0  0  0  0  0  0  0  0  0  0
   -7.6751    4.4068  -14.1907 C   0  0  0  0  0  0  0  0  0  0  0  0
   -7.6948    4.4648  -15.7019 C   0  0  0  0  0  0  0  0  0  0  0  0
   -8.8285    4.1420  -16.3723 C   0  0  0  0  0  0  0  0  0  0  0  0
   -8.9142    4.1199  -17.8219 C   0  0  0  0  0  0  0  0  0  0  0  0
   -7.8225    4.4254  -18.5370 C   0  0  0  0  0  0  0  0  0  0  0  0
   -6.6686    4.8105  -17.8761 N   0  0  0  0  0  0  0  0  0  0  0  0
   -5.4643    5.2273  -18.3812 C   0  0  0  0  0  0  0  0  0  0  0  0
   -4.6878    5.5205  -17.2870 C   0  0  0  0  0  0  0  0  0  0  0  0
   -5.3670    5.2985  -16.1192 N   0  0  0  0  0  0  0  0  0  0  0  0
   -6.5587    4.8656  -16.4906 C   0  0  0  0  0  0  0  0  0  0  0  0
  1  2  2  0
  2  3  1  0
  3  4  1  0
  2  5  1  0
  5  6  1  0
  6  7  1  0
  7  8  2  0
  8  9  1  0
  9 10  2  0
 10 11  1  0
 11 12  1  0
 12 13  2  0
 13 14  1  0
 14 15  2  0
 15  7  1  0
 15 11  1  0
M  END
>  <tags>  (299) 
openbind_xx01zvns2b_c1_knitwork_impure,fragmenstein_placed,openbind_xx01zvns2b_c1_scaffolds_chemok_bbok,BulkDock Fragalysis export,openbind_xx01zvns2b_c1_scaffolds

>  <placement_batch>  (299) 
openbind_xx01zvns2b_c1_knitwork_impure

>  <inspiration_score>  (299) 
None

>  <name>  (299) 
P65647

>  <HIPPO Pose ID>  (299) 
65647

>  <ref_pdb>  (299) 
Z1495a

>  <inchikey>  (299) 
SNKXIENPXGZURO-UHFFFAOYSA-N

>  <alias>  (299) 
None

>  <ref_mols>  (299) 
Z0719a,Z1495a

>  <subsites>  (299) 
1 - Z4590/B/203/1

>  <distance_score>  (299) 
0.92281

>  <HIPPO Compound ID>  (299) 
118843

>  <smiles>  (299) 
O=C(CCl)NCc1cccn2ccnc12

>  <energy_score>  (299) 
-1.235952

$$$$
P65689
     RDKit          3D

 14 16  0  0  0  0  0  0  0  0999 V2000
   -5.2448    7.1758  -18.7384 C   0  0  0  0  0  0  0  0  0  0  0  0
   -5.3077    5.8424  -18.7020 C   0  0  0  0  0  0  0  0  0  0  0  0
   -6.4251    5.0536  -18.2281 C   0  0  0  0  0  0  0  0  0  0  0  0
   -7.2487    4.3765  -19.1196 C   0  0  0  0  0  0  0  0  0  0  0  0
   -8.3760    3.7494  -18.6365 C   0  0  0  0  0  0  0  0  0  0  0  0
   -8.7402    3.6987  -17.3439 N   0  0  0  0  0  0  0  0  0  0  0  0
   -7.9061    4.3245  -16.4699 C   0  0  0  0  0  0  0  0  0  0  0  0
   -8.1119    4.3976  -15.0641 C   0  0  0  0  0  0  0  0  0  0  0  0
   -7.1021    5.0600  -14.4094 C   0  0  0  0  0  0  0  0  0  0  0  0
   -5.9172    5.6370  -15.4903 S   0  0  0  0  0  0  0  0  0  0  0  0
   -6.7451    4.9961  -16.8628 C   0  0  0  0  0  0  0  0  0  0  0  0
   -4.1127    5.2466  -19.3448 C   0  0  0  0  0  0  0  0  0  0  0  0
   -3.4703    6.3751  -20.0563 N   0  0  0  0  0  0  0  0  0  0  0  0
   -3.9870    7.5949  -19.4009 C   0  0  0  0  0  0  0  0  0  0  0  0
  1  2  2  0
  2  3  1  0
  3  4  2  0
  4  5  1  0
  5  6  2  0
  6  7  1  0
  7  8  1  0
  8  9  2  0
  9 10  1  0
 10 11  1  0
  2 12  1  0
 12 13  1  0
 13 14  1  0
 14  1  1  0
 11  3  1  0
 11  7  2  0
M  END
>  <tags>  (300) 
openbind_xx01zvns2b_c1_knitwork_impure,fragmenstein_placed,openbind_xx01zvns2b_c1_scaffolds_chemok_bbok,BulkDock Fragalysis export,openbind_xx01zvns2b_c1_scaffolds

>  <placement_batch>  (300) 
openbind_xx01zvns2b_c1_knitwork_impure

>  <inspiration_score>  (300) 
None

>  <name>  (300) 
P65689

>  <HIPPO Pose ID>  (300) 
65689

>  <ref_pdb>  (300) 
Z3515a

>  <inchikey>  (300) 
MOGLCOJIQCIAJJ-UHFFFAOYSA-N

>  <alias>  (300) 
None

>  <ref_mols>  (300) 
Z0182a,Z0819a,Z0990a,Z3515a

>  <subsites>  (300) 
1 - Z4590/B/203/1

>  <distance_score>  (300) 
0.801885

>  <HIPPO Compound ID>  (300) 
64654

>  <smiles>  (300) 
C1=C(c2ccnc3ccsc23)CNC1

>  <energy_score>  (300) 
-26.828935

$$$$
P65763
     RDKit          3D

 13 14  0  0  0  0  0  0  0  0999 V2000
   -6.5485    5.9555  -12.7215 C   0  0  0  0  0  0  0  0  0  0  0  0
   -7.1303    4.9169  -13.6821 C   0  0  1  0  0  0  0  0  0  0  0  0
   -7.9746    3.9987  -12.9185 N   0  0  0  0  0  0  0  0  0  0  0  0
   -7.8938    5.6387  -14.7869 C   0  0  0  0  0  0  0  0  0  0  0  0
   -7.9549    4.9424  -16.1129 C   0  0  0  0  0  0  0  0  0  0  0  0
   -9.1281    4.2732  -16.4876 C   0  0  0  0  0  0  0  0  0  0  0  0
   -9.3723    3.8945  -17.8007 C   0  0  0  0  0  0  0  0  0  0  0  0
   -8.4129    4.1175  -18.7829 C   0  0  0  0  0  0  0  0  0  0  0  0
   -7.1746    4.6737  -18.4210 C   0  0  0  0  0  0  0  0  0  0  0  0
   -6.0032    5.0096  -19.1441 C   0  0  0  0  0  0  0  0  0  0  0  0
   -5.0891    5.5354  -18.2647 C   0  0  0  0  0  0  0  0  0  0  0  0
   -5.6788    5.5550  -17.0314 N   0  0  0  0  0  0  0  0  0  0  0  0
   -6.9604    5.0535  -17.0985 C   0  0  0  0  0  0  0  0  0  0  0  0
  2  1  1  1
  2  3  1  0
  2  4  1  0
  4  5  1  0
  5  6  2  0
  6  7  1  0
  7  8  2  0
  8  9  1  0
  9 10  1  0
 10 11  2  0
 11 12  1  0
 12 13  1  0
 13  5  1  0
 13  9  2  0
M  END
>  <tags>  (301) 
openbind_xx01zvns2b_c1_knitwork_impure,fragmenstein_placed,openbind_xx01zvns2b_c1_scaffolds_chemok_bbok,BulkDock Fragalysis export,openbind_xx01zvns2b_c1_scaffolds

>  <placement_batch>  (301) 
openbind_xx01zvns2b_c1_knitwork_impure

>  <inspiration_score>  (301) 
None

>  <name>  (301) 
P65763

>  <HIPPO Pose ID>  (301) 
65763

>  <ref_pdb>  (301) 
Z0089a

>  <inchikey>  (301) 
JRCRPUGDMKLCQO-UHFFFAOYSA-N

>  <alias>  (301) 
None

>  <ref_mols>  (301) 
Z0827a,Z2971a,Z0089a

>  <subsites>  (301) 
1 - Z4590/B/203/1

>  <distance_score>  (301) 
0.970856

>  <HIPPO Compound ID>  (301) 
118995

>  <smiles>  (301) 
C[C@@H](N)Cc1cccc2cc[nH]c12

>  <energy_score>  (301) 
-12.123647

$$$$
P65765
     RDKit          3D

 13 14  0  0  0  0  0  0  0  0999 V2000
   -8.4235    4.8489  -12.8439 C   0  0  0  0  0  0  0  0  0  0  0  0
   -7.1904    5.0104  -13.7151 C   0  0  0  0  0  0  0  0  0  0  0  0
   -6.1138    5.7527  -12.9158 C   0  0  0  0  0  0  0  0  0  0  0  0
   -7.4814    5.8231  -14.8983 N   0  0  0  0  0  0  0  0  0  0  0  0
   -7.7407    5.1036  -16.0726 C   0  0  0  0  0  0  0  0  0  0  0  0
   -8.9620    4.4521  -16.2758 C   0  0  0  0  0  0  0  0  0  0  0  0
   -9.3628    4.0077  -17.5337 C   0  0  0  0  0  0  0  0  0  0  0  0
   -8.5123    4.1356  -18.6269 C   0  0  0  0  0  0  0  0  0  0  0  0
   -7.2289    4.6691  -18.4275 C   0  0  0  0  0  0  0  0  0  0  0  0
   -6.1290    4.9118  -19.2829 C   0  0  0  0  0  0  0  0  0  0  0  0
   -5.1083    5.4556  -18.5441 C   0  0  0  0  0  0  0  0  0  0  0  0
   -5.5652    5.5744  -17.2629 N   0  0  0  0  0  0  0  0  0  0  0  0
   -6.8659    5.1283  -17.1661 C   0  0  0  0  0  0  0  0  0  0  0  0
  1  2  1  0
  2  3  1  0
  2  4  1  0
  4  5  1  0
  5  6  2  0
  6  7  1  0
  7  8  2  0
  8  9  1  0
  9 10  1  0
 10 11  2  0
 11 12  1  0
 12 13  1  0
 13  5  1  0
 13  9  2  0
M  END
>  <tags>  (302) 
openbind_xx01zvns2b_c1_knitwork_impure,fragmenstein_placed,openbind_xx01zvns2b_c1_scaffolds_chemok_bbok,BulkDock Fragalysis export,openbind_xx01zvns2b_c1_scaffolds

>  <placement_batch>  (302) 
openbind_xx01zvns2b_c1_knitwork_impure

>  <inspiration_score>  (302) 
None

>  <name>  (302) 
P65765

>  <HIPPO Pose ID>  (302) 
65765

>  <ref_pdb>  (302) 
Z0089a

>  <inchikey>  (302) 
ZOOJWUWQDJWRAL-UHFFFAOYSA-N

>  <alias>  (302) 
None

>  <ref_mols>  (302) 
Z0827a,Z2971a,Z0089a

>  <subsites>  (302) 
1 - Z4590/B/203/1

>  <distance_score>  (302) 
0.921796

>  <HIPPO Compound ID>  (302) 
11169

>  <smiles>  (302) 
CC(C)Nc1cccc2cc[nH]c12

>  <energy_score>  (302) 
-19.493481

$$$$
P65839
     RDKit          3D

 16 17  0  0  0  0  0  0  0  0999 V2000
   -5.9896    4.7327  -15.5066 C   0  0  0  0  0  0  0  0  0  0  0  0
   -7.4551    5.1180  -15.5024 C   0  0  0  0  0  0  0  0  0  0  0  0
   -8.4003    4.0348  -15.9917 C   0  0  0  0  0  0  0  0  0  0  0  0
   -7.5465    6.0940  -16.4705 F   0  0  0  0  0  0  0  0  0  0  0  0
   -7.7975    5.6636  -14.0757 C   0  0  0  0  0  0  0  0  0  0  0  0
   -7.8195    6.8175  -13.8584 O   0  0  0  0  0  0  0  0  0  0  0  0
   -7.9746    4.4420  -13.1034 N   0  0  0  0  0  0  0  0  0  0  0  0
   -8.1126    4.4021  -11.7133 C   0  0  0  0  0  0  0  0  0  0  0  0
   -8.0152    5.5623  -10.9319 C   0  0  0  0  0  0  0  0  0  0  0  0
   -8.1431    5.4999   -9.5378 C   0  0  0  0  0  0  0  0  0  0  0  0
   -8.3958    4.2726   -8.9493 C   0  0  0  0  0  0  0  0  0  0  0  0
   -8.5126    3.1246   -9.7187 C   0  0  0  0  0  0  0  0  0  0  0  0
   -8.3533    3.1659  -11.0979 C   0  0  0  0  0  0  0  0  0  0  0  0
   -8.8310    1.9633   -8.8379 C   0  0  0  0  0  0  0  0  0  0  0  0
   -8.8936    2.4902   -7.4477 N   0  0  0  0  0  0  0  0  0  0  0  0
   -8.5964    3.9367   -7.5122 C   0  0  0  0  0  0  0  0  0  0  0  0
  1  2  1  0
  2  3  1  0
  2  4  1  0
  2  5  1  0
  5  6  2  0
  5  7  1  0
  7  8  1  0
  8  9  2  0
  9 10  1  0
 10 11  2  0
 11 12  1  0
 12 13  2  0
 12 14  1  0
 14 15  1  0
 15 16  1  0
 13  8  1  0
 16 11  1  0
M  END
>  <tags>  (303) 
openbind_xx01zvns2b_c1_knitwork_impure,BulkDock Fragalysis export,fragmenstein_placed,openbind_xx01zvns2b_c1_scaffolds

>  <placement_batch>  (303) 
openbind_xx01zvns2b_c1_knitwork_impure

>  <inspiration_score>  (303) 
None

>  <name>  (303) 
P65839

>  <HIPPO Pose ID>  (303) 
65839

>  <ref_pdb>  (303) 
Z3880a

>  <inchikey>  (303) 
MMYJYASBEWTJDU-UHFFFAOYSA-N

>  <alias>  (303) 
None

>  <ref_mols>  (303) 
Z1046b,Z3880a

>  <subsites>  (303) 
1 - Z4590/B/203/1

>  <distance_score>  (303) 
0.961193

>  <HIPPO Compound ID>  (303) 
69458

>  <smiles>  (303) 
CC(C)(F)C(=O)Nc1ccc2c(c1)CNC2

>  <energy_score>  (303) 
-19.02913

$$$$
P65858
     RDKit          3D

 14 15  0  0  0  0  0  0  0  0999 V2000
   -3.1977    3.2692  -15.4314 N   0  0  0  0  0  0  0  0  0  0  0  0
   -2.6941    4.5791  -15.0740 C   0  0  0  0  0  0  0  0  0  0  0  0
   -2.4684    5.5071  -16.2734 C   0  0  0  0  0  0  0  0  0  0  0  0
   -3.4934    5.4786  -17.4178 C   0  0  0  0  0  0  0  0  0  0  0  0
   -4.9095    5.5142  -17.0772 N   0  0  0  0  0  0  0  0  0  0  0  0
   -5.3743    6.0574  -15.8968 C   0  0  0  0  0  0  0  0  0  0  0  0
   -6.5842    5.9762  -15.4465 N   0  0  0  0  0  0  0  0  0  0  0  0
   -7.4295    5.3225  -16.2793 C   0  0  0  0  0  0  0  0  0  0  0  0
   -8.9967    4.8831  -15.8033 S   0  0  0  0  0  0  0  0  0  0  0  0
   -9.4087    4.3873  -17.3937 C   0  0  0  0  0  0  0  0  0  0  0  0
   -8.3256    4.4464  -18.2417 C   0  0  0  0  0  0  0  0  0  0  0  0
   -7.1655    4.9280  -17.5694 C   0  0  0  0  0  0  0  0  0  0  0  0
   -5.8114    5.0647  -18.0530 C   0  0  0  0  0  0  0  0  0  0  0  0
   -5.4966    4.8077  -19.2098 O   0  0  0  0  0  0  0  0  0  0  0  0
  1  2  1  0
  2  3  1  0
  3  4  1  0
  4  5  1  0
  5  6  1  0
  6  7  2  0
  7  8  1  0
  8  9  1  0
  9 10  1  0
 10 11  2  0
 11 12  1  0
 12 13  1  0
 13 14  2  0
 13  5  1  0
 12  8  2  0
M  END
>  <tags>  (304) 
openbind_xx01zvns2b_c1_knitwork_impure,BulkDock Fragalysis export,fragmenstein_placed,openbind_xx01zvns2b_c1_scaffolds

>  <placement_batch>  (304) 
openbind_xx01zvns2b_c1_knitwork_impure

>  <inspiration_score>  (304) 
None

>  <name>  (304) 
P65858

>  <HIPPO Pose ID>  (304) 
65858

>  <ref_pdb>  (304) 
Z0472a

>  <inchikey>  (304) 
RGNZVOWAWYBWNX-UHFFFAOYSA-N

>  <alias>  (304) 
None

>  <ref_mols>  (304) 
Z1719a,Z0472a

>  <subsites>  (304) 
1 - Z4590/B/203/1

>  <distance_score>  (304) 
0.618174

>  <HIPPO Compound ID>  (304) 
119020

>  <smiles>  (304) 
NCCCn1cnc2sccc2c1=O

>  <energy_score>  (304) 
-39.372896

$$$$
P65864
     RDKit          3D

 14 15  0  0  0  0  0  0  0  0999 V2000
   -2.2935    5.4720  -17.8107 C   0  0  0  0  0  0  0  0  0  0  0  0
   -2.1762    5.2943  -16.3062 C   0  0  0  0  0  0  0  0  0  0  0  0
   -3.4573    4.7415  -15.6918 C   0  0  0  0  0  0  0  0  0  0  0  0
   -4.4045    5.8532  -15.5638 N   0  0  0  0  0  0  0  0  0  0  0  0
   -5.7377    5.4156  -15.4969 C   0  0  0  0  0  0  0  0  0  0  0  0
   -6.2545    5.3981  -14.2605 N   0  0  0  0  0  0  0  0  0  0  0  0
   -7.5356    5.0184  -14.1714 C   0  0  0  0  0  0  0  0  0  0  0  0
   -8.3484    4.7151  -15.1900 N   0  0  0  0  0  0  0  0  0  0  0  0
   -7.8138    4.7354  -16.4162 C   0  0  0  0  0  0  0  0  0  0  0  0
   -8.6083    4.4279  -17.5054 C   0  0  0  0  0  0  0  0  0  0  0  0
   -8.0574    4.4542  -18.7728 C   0  0  0  0  0  0  0  0  0  0  0  0
   -6.7762    4.7820  -19.0213 N   0  0  0  0  0  0  0  0  0  0  0  0
   -6.0234    5.0991  -17.9540 C   0  0  0  0  0  0  0  0  0  0  0  0
   -6.4812    5.0789  -16.6346 C   0  0  0  0  0  0  0  0  0  0  0  0
  1  2  1  0
  2  3  1  0
  3  4  1  0
  4  5  1  0
  5  6  2  0
  6  7  1  0
  7  8  2  0
  8  9  1  0
  9 10  2  0
 10 11  1  0
 11 12  2  0
 12 13  1  0
 13 14  2  0
 14  5  1  0
 14  9  1  0
M  END
>  <tags>  (305) 
openbind_xx01zvns2b_c1_knitwork_impure,BulkDock Fragalysis export,fragmenstein_placed,openbind_xx01zvns2b_c1_scaffolds

>  <placement_batch>  (305) 
openbind_xx01zvns2b_c1_knitwork_impure

>  <inspiration_score>  (305) 
None

>  <name>  (305) 
P65864

>  <HIPPO Pose ID>  (305) 
65864

>  <ref_pdb>  (305) 
Z0472a

>  <inchikey>  (305) 
HQUXNFMDSUGSSR-UHFFFAOYSA-N

>  <alias>  (305) 
None

>  <ref_mols>  (305) 
Z1719a,Z0472a

>  <subsites>  (305) 
1 - Z4590/B/203/1

>  <distance_score>  (305) 
0.912819

>  <HIPPO Compound ID>  (305) 
119028

>  <smiles>  (305) 
CCCNc1ncnc2ccncc12

>  <energy_score>  (305) 
-20.174563

$$$$
P65867
     RDKit          3D

 13 14  0  0  0  0  0  0  0  0999 V2000
   -2.3510    4.3180  -14.9102 C   0  0  0  0  0  0  0  0  0  0  0  0
   -2.2291    5.2730  -16.0920 C   0  0  0  0  0  0  0  0  0  0  0  0
   -3.5536    5.4316  -16.8299 C   0  0  0  0  0  0  0  0  0  0  0  0
   -4.5326    6.0258  -15.9334 N   0  0  0  0  0  0  0  0  0  0  0  0
   -5.8204    5.5433  -15.8334 C   0  0  0  0  0  0  0  0  0  0  0  0
   -6.3849    5.4740  -14.6574 N   0  0  0  0  0  0  0  0  0  0  0  0
   -7.6796    4.9917  -14.5928 C   0  0  0  0  0  0  0  0  0  0  0  0
   -8.4293    4.6567  -15.6017 N   0  0  0  0  0  0  0  0  0  0  0  0
   -7.8573    4.7369  -16.8296 C   0  0  0  0  0  0  0  0  0  0  0  0
   -8.2847    4.4751  -18.1094 C   0  0  0  0  0  0  0  0  0  0  0  0
   -7.1628    4.7357  -18.9244 C   0  0  0  0  0  0  0  0  0  0  0  0
   -6.1109    5.1914  -18.2344 N   0  0  0  0  0  0  0  0  0  0  0  0
   -6.5596    5.1503  -16.9602 N   0  0  0  0  0  0  0  0  0  0  0  0
  1  2  1  0
  2  3  1  0
  3  4  1  0
  4  5  1  0
  5  6  2  0
  6  7  1  0
  7  8  2  0
  8  9  1  0
  9 10  2  0
 10 11  1  0
 11 12  2  0
 12 13  1  0
 13  5  1  0
 13  9  1  0
M  END
>  <tags>  (306) 
openbind_xx01zvns2b_c1_knitwork_impure,BulkDock Fragalysis export,fragmenstein_placed,openbind_xx01zvns2b_c1_scaffolds

>  <placement_batch>  (306) 
openbind_xx01zvns2b_c1_knitwork_impure

>  <inspiration_score>  (306) 
None

>  <name>  (306) 
P65867

>  <HIPPO Pose ID>  (306) 
65867

>  <ref_pdb>  (306) 
Z0472a

>  <inchikey>  (306) 
WERCHVXXXMTJME-UHFFFAOYSA-N

>  <alias>  (306) 
None

>  <ref_mols>  (306) 
Z1719a,Z0472a

>  <subsites>  (306) 
1 - Z4590/B/203/1

>  <distance_score>  (306) 
0.646008

>  <HIPPO Compound ID>  (306) 
119031

>  <smiles>  (306) 
CCCNc1ncnc2ccnn12

>  <energy_score>  (306) 
-33.985962

$$$$
P65868
     RDKit          3D

 13 14  0  0  0  0  0  0  0  0999 V2000
   -2.1279    4.5197  -14.9504 C   0  0  0  0  0  0  0  0  0  0  0  0
   -2.2222    5.3268  -16.2397 C   0  0  0  0  0  0  0  0  0  0  0  0
   -3.6412    5.3392  -16.7977 C   0  0  0  0  0  0  0  0  0  0  0  0
   -4.5125    6.0613  -15.8777 N   0  0  0  0  0  0  0  0  0  0  0  0
   -5.8221    5.5701  -15.8252 C   0  0  0  0  0  0  0  0  0  0  0  0
   -6.3632    5.4836  -14.5877 N   0  0  0  0  0  0  0  0  0  0  0  0
   -7.6264    5.0342  -14.4711 C   0  0  0  0  0  0  0  0  0  0  0  0
   -8.4720    4.6982  -15.4498 N   0  0  0  0  0  0  0  0  0  0  0  0
   -7.8889    4.7695  -16.6576 C   0  0  0  0  0  0  0  0  0  0  0  0
   -8.7058    4.3689  -18.0969 S   0  0  0  0  0  0  0  0  0  0  0  0
   -7.2580    4.6730  -18.9681 C   0  0  0  0  0  0  0  0  0  0  0  0
   -6.2362    5.1355  -18.2793 N   0  0  0  0  0  0  0  0  0  0  0  0
   -6.5931    5.1754  -16.9361 C   0  0  0  0  0  0  0  0  0  0  0  0
  1  2  1  0
  2  3  1  0
  3  4  1  0
  4  5  1  0
  5  6  2  0
  6  7  1  0
  7  8  2  0
  8  9  1  0
  9 10  1  0
 10 11  1  0
 11 12  2  0
 12 13  1  0
 13  5  1  0
 13  9  2  0
M  END
>  <tags>  (307) 
openbind_xx01zvns2b_c1_knitwork_impure,fragmenstein_placed,openbind_xx01zvns2b_c1_scaffolds_chemok_bbok,BulkDock Fragalysis export,openbind_xx01zvns2b_c1_scaffolds

>  <placement_batch>  (307) 
openbind_xx01zvns2b_c1_knitwork_impure

>  <inspiration_score>  (307) 
None

>  <name>  (307) 
P65868

>  <HIPPO Pose ID>  (307) 
65868

>  <ref_pdb>  (307) 
Z0472a

>  <inchikey>  (307) 
GUQBXRHGLOWICG-UHFFFAOYSA-N

>  <alias>  (307) 
None

>  <ref_mols>  (307) 
Z1719a,Z0472a

>  <subsites>  (307) 
1 - Z4590/B/203/1

>  <distance_score>  (307) 
0.682706

>  <HIPPO Compound ID>  (307) 
119032

>  <smiles>  (307) 
CCCNc1ncnc2scnc12

>  <energy_score>  (307) 
-66.240985

$$$$
P65869
     RDKit          3D

 14 15  0  0  0  0  0  0  0  0999 V2000
   -2.2643    4.3816  -14.8431 C   0  0  0  0  0  0  0  0  0  0  0  0
   -2.2102    5.2775  -16.0744 C   0  0  0  0  0  0  0  0  0  0  0  0
   -3.5684    5.3703  -16.7604 C   0  0  0  0  0  0  0  0  0  0  0  0
   -4.4939    6.0981  -15.8966 N   0  0  0  0  0  0  0  0  0  0  0  0
   -5.7801    5.5399  -15.8001 C   0  0  0  0  0  0  0  0  0  0  0  0
   -6.2214    5.4482  -14.5310 N   0  0  0  0  0  0  0  0  0  0  0  0
   -7.4562    4.9677  -14.3796 C   0  0  0  0  0  0  0  0  0  0  0  0
   -8.2869    4.6289  -15.3603 N   0  0  0  0  0  0  0  0  0  0  0  0
   -7.8224    4.7074  -16.6028 C   0  0  0  0  0  0  0  0  0  0  0  0
   -8.6540    4.3448  -17.5810 N   0  0  0  0  0  0  0  0  0  0  0  0
   -8.1908    4.4058  -18.8486 C   0  0  0  0  0  0  0  0  0  0  0  0
   -6.9198    4.8378  -19.1548 C   0  0  0  0  0  0  0  0  0  0  0  0
   -6.0703    5.2490  -18.2014 N   0  0  0  0  0  0  0  0  0  0  0  0
   -6.5314    5.1670  -16.9163 C   0  0  0  0  0  0  0  0  0  0  0  0
  1  2  1  0
  2  3  1  0
  3  4  1  0
  4  5  1  0
  5  6  2  0
  6  7  1  0
  7  8  2  0
  8  9  1  0
  9 10  2  0
 10 11  1  0
 11 12  2  0
 12 13  1  0
 13 14  2  0
 14  5  1  0
 14  9  1  0
M  END
>  <tags>  (308) 
openbind_xx01zvns2b_c1_knitwork_impure,BulkDock Fragalysis export,fragmenstein_placed,openbind_xx01zvns2b_c1_scaffolds

>  <placement_batch>  (308) 
openbind_xx01zvns2b_c1_knitwork_impure

>  <inspiration_score>  (308) 
None

>  <name>  (308) 
P65869

>  <HIPPO Pose ID>  (308) 
65869

>  <ref_pdb>  (308) 
Z0472a

>  <inchikey>  (308) 
UAUAAYCTASKFNR-UHFFFAOYSA-N

>  <alias>  (308) 
None

>  <ref_mols>  (308) 
Z1719a,Z0472a

>  <subsites>  (308) 
1 - Z4590/B/203/1

>  <distance_score>  (308) 
0.633997

>  <HIPPO Compound ID>  (308) 
119034

>  <smiles>  (308) 
CCCNc1ncnc2nccnc12

>  <energy_score>  (308) 
-13.73215

$$$$
P65871
     RDKit          3D

 13 14  0  0  0  0  0  0  0  0999 V2000
   -2.6135    4.3728  -15.1538 C   0  0  0  0  0  0  0  0  0  0  0  0
   -2.4230    5.2452  -16.3879 C   0  0  0  0  0  0  0  0  0  0  0  0
   -3.7146    5.4099  -17.1861 C   0  0  0  0  0  0  0  0  0  0  0  0
   -4.6483    6.2548  -16.4482 N   0  0  0  0  0  0  0  0  0  0  0  0
   -5.8530    5.6345  -16.1113 C   0  0  0  0  0  0  0  0  0  0  0  0
   -6.1494    5.6029  -14.7924 N   0  0  0  0  0  0  0  0  0  0  0  0
   -7.3249    5.0668  -14.4070 C   0  0  0  0  0  0  0  0  0  0  0  0
   -8.2982    4.5857  -15.1819 N   0  0  0  0  0  0  0  0  0  0  0  0
   -7.9551    4.6269  -16.4772 C   0  0  0  0  0  0  0  0  0  0  0  0
   -8.7558    4.1893  -17.4875 O   0  0  0  0  0  0  0  0  0  0  0  0
   -8.1175    4.3855  -18.7011 N   0  0  0  0  0  0  0  0  0  0  0  0
   -6.9475    4.9570  -18.4004 C   0  0  0  0  0  0  0  0  0  0  0  0
   -6.7819    5.1203  -17.0135 C   0  0  0  0  0  0  0  0  0  0  0  0
  1  2  1  0
  2  3  1  0
  3  4  1  0
  4  5  1  0
  5  6  2  0
  6  7  1  0
  7  8  2  0
  8  9  1  0
  9 10  1  0
 10 11  1  0
 11 12  2  0
 12 13  1  0
 13  5  1  0
 13  9  2  0
M  END
>  <tags>  (309) 
openbind_xx01zvns2b_c1_knitwork_impure,BulkDock Fragalysis export,fragmenstein_placed,openbind_xx01zvns2b_c1_scaffolds

>  <placement_batch>  (309) 
openbind_xx01zvns2b_c1_knitwork_impure

>  <inspiration_score>  (309) 
None

>  <name>  (309) 
P65871

>  <HIPPO Pose ID>  (309) 
65871

>  <ref_pdb>  (309) 
Z0472a

>  <inchikey>  (309) 
XCVZGODKCMUNAW-UHFFFAOYSA-N

>  <alias>  (309) 
None

>  <ref_mols>  (309) 
Z1719a,Z0472a

>  <subsites>  (309) 
1 - Z4590/B/203/1

>  <distance_score>  (309) 
0.660796

>  <HIPPO Compound ID>  (309) 
119036

>  <smiles>  (309) 
CCCNc1ncnc2oncc12

>  <energy_score>  (309) 
-24.616794

$$$$
P65872
     RDKit          3D

 14 15  0  0  0  0  0  0  0  0999 V2000
   -1.9527    4.3559  -14.1247 N   0  0  0  0  0  0  0  0  0  0  0  0
   -2.8728    4.2762  -15.2535 C   0  0  0  0  0  0  0  0  0  0  0  0
   -2.5814    5.4156  -16.2319 C   0  0  0  0  0  0  0  0  0  0  0  0
   -3.5614    5.4857  -17.4109 C   0  0  0  0  0  0  0  0  0  0  0  0
   -4.9786    5.5082  -17.0680 N   0  0  0  0  0  0  0  0  0  0  0  0
   -5.4350    6.1109  -15.9070 C   0  0  0  0  0  0  0  0  0  0  0  0
   -6.6431    6.0582  -15.4461 N   0  0  0  0  0  0  0  0  0  0  0  0
   -7.4831    5.3540  -16.2404 C   0  0  0  0  0  0  0  0  0  0  0  0
   -9.0490    4.9156  -15.7613 S   0  0  0  0  0  0  0  0  0  0  0  0
   -9.3505    4.3276  -17.3475 C   0  0  0  0  0  0  0  0  0  0  0  0
   -8.3182    4.3069  -18.1597 N   0  0  0  0  0  0  0  0  0  0  0  0
   -7.2362    4.8729  -17.5087 C   0  0  0  0  0  0  0  0  0  0  0  0
   -5.8834    5.0000  -18.0208 C   0  0  0  0  0  0  0  0  0  0  0  0
   -5.5479    4.7045  -19.1634 O   0  0  0  0  0  0  0  0  0  0  0  0
  1  2  1  0
  2  3  1  0
  3  4  1  0
  4  5  1  0
  5  6  1  0
  6  7  2  0
  7  8  1  0
  8  9  1  0
  9 10  1  0
 10 11  2  0
 11 12  1  0
 12 13  1  0
 13 14  2  0
 13  5  1  0
 12  8  2  0
M  END
>  <tags>  (310) 
openbind_xx01zvns2b_c1_knitwork_impure,BulkDock Fragalysis export,fragmenstein_placed,openbind_xx01zvns2b_c1_scaffolds

>  <placement_batch>  (310) 
openbind_xx01zvns2b_c1_knitwork_impure

>  <inspiration_score>  (310) 
None

>  <name>  (310) 
P65872

>  <HIPPO Pose ID>  (310) 
65872

>  <ref_pdb>  (310) 
Z0472a

>  <inchikey>  (310) 
PWMLJRPLKPGGBU-UHFFFAOYSA-N

>  <alias>  (310) 
None

>  <ref_mols>  (310) 
Z1719a,Z0472a

>  <subsites>  (310) 
1 - Z4590/B/203/1

>  <distance_score>  (310) 
0.676585

>  <HIPPO Compound ID>  (310) 
119039

>  <smiles>  (310) 
NCCCn1cnc2scnc2c1=O

>  <energy_score>  (310) 
-85.256177

$$$$
P65873
     RDKit          3D

 13 14  0  0  0  0  0  0  0  0999 V2000
   -2.3750    5.4485  -17.8541 C   0  0  0  0  0  0  0  0  0  0  0  0
   -2.1757    5.3086  -16.3543 C   0  0  0  0  0  0  0  0  0  0  0  0
   -3.4172    4.7555  -15.6645 C   0  0  0  0  0  0  0  0  0  0  0  0
   -4.3747    5.8524  -15.5312 N   0  0  0  0  0  0  0  0  0  0  0  0
   -5.6995    5.3959  -15.5319 C   0  0  0  0  0  0  0  0  0  0  0  0
   -6.3071    5.3340  -14.3330 N   0  0  0  0  0  0  0  0  0  0  0  0
   -7.5955    4.9540  -14.2986 C   0  0  0  0  0  0  0  0  0  0  0  0
   -8.3980    4.6886  -15.3297 N   0  0  0  0  0  0  0  0  0  0  0  0
   -7.7550    4.7554  -16.5069 C   0  0  0  0  0  0  0  0  0  0  0  0
   -8.5729    4.4395  -17.9677 S   0  0  0  0  0  0  0  0  0  0  0  0
   -7.1479    4.6879  -18.8802 C   0  0  0  0  0  0  0  0  0  0  0  0
   -6.0902    5.0694  -18.0890 C   0  0  0  0  0  0  0  0  0  0  0  0
   -6.4236    5.0896  -16.6960 C   0  0  0  0  0  0  0  0  0  0  0  0
  1  2  1  0
  2  3  1  0
  3  4  1  0
  4  5  1  0
  5  6  2  0
  6  7  1  0
  7  8  2  0
  8  9  1  0
  9 10  1  0
 10 11  1  0
 11 12  2  0
 12 13  1  0
 13  5  1  0
 13  9  2  0
M  END
>  <tags>  (311) 
openbind_xx01zvns2b_c1_knitwork_impure,fragmenstein_placed,openbind_xx01zvns2b_c1_scaffolds_chemok_bbok,BulkDock Fragalysis export,openbind_xx01zvns2b_c1_scaffolds

>  <placement_batch>  (311) 
openbind_xx01zvns2b_c1_knitwork_impure

>  <inspiration_score>  (311) 
None

>  <name>  (311) 
P65873

>  <HIPPO Pose ID>  (311) 
65873

>  <ref_pdb>  (311) 
Z0472a

>  <inchikey>  (311) 
RNMPQAFHVVFLOU-UHFFFAOYSA-N

>  <alias>  (311) 
None

>  <ref_mols>  (311) 
Z1719a,Z0472a

>  <subsites>  (311) 
1 - Z4590/B/203/1

>  <distance_score>  (311) 
0.918535

>  <HIPPO Compound ID>  (311) 
119040

>  <smiles>  (311) 
CCCNc1ncnc2sccc12

>  <energy_score>  (311) 
-28.841131

$$$$
P65875
     RDKit          3D

 14 15  0  0  0  0  0  0  0  0999 V2000
   -2.4518    5.0013  -17.9230 C   0  0  0  0  0  0  0  0  0  0  0  0
   -2.1944    5.2883  -16.4490 C   0  0  0  0  0  0  0  0  0  0  0  0
   -3.3994    4.9436  -15.5755 C   0  0  0  0  0  0  0  0  0  0  0  0
   -4.4187    5.9683  -15.7835 N   0  0  0  0  0  0  0  0  0  0  0  0
   -5.7216    5.4332  -15.5607 C   0  0  0  0  0  0  0  0  0  0  0  0
   -6.1129    5.2356  -14.2874 N   0  0  0  0  0  0  0  0  0  0  0  0
   -7.3645    4.7925  -14.1340 C   0  0  0  0  0  0  0  0  0  0  0  0
   -8.2414    4.5480  -15.1145 N   0  0  0  0  0  0  0  0  0  0  0  0
   -7.7903    4.6958  -16.3694 C   0  0  0  0  0  0  0  0  0  0  0  0
   -8.6163    4.3974  -17.4388 C   0  0  0  0  0  0  0  0  0  0  0  0
   -8.1546    4.5070  -18.7463 C   0  0  0  0  0  0  0  0  0  0  0  0
   -6.8662    4.9614  -18.9555 C   0  0  0  0  0  0  0  0  0  0  0  0
   -6.0365    5.3105  -17.9532 N   0  0  0  0  0  0  0  0  0  0  0  0
   -6.5056    5.1465  -16.6826 C   0  0  0  0  0  0  0  0  0  0  0  0
  1  2  1  0
  2  3  1  0
  3  4  1  0
  4  5  1  0
  5  6  2  0
  6  7  1  0
  7  8  2  0
  8  9  1  0
  9 10  2  0
 10 11  1  0
 11 12  2  0
 12 13  1  0
 13 14  2  0
 14  5  1  0
 14  9  1  0
M  END
>  <tags>  (312) 
openbind_xx01zvns2b_c1_knitwork_impure,fragmenstein_placed,openbind_xx01zvns2b_c1_scaffolds_chemok_bbok,BulkDock Fragalysis export,openbind_xx01zvns2b_c1_scaffolds

>  <placement_batch>  (312) 
openbind_xx01zvns2b_c1_knitwork_impure

>  <inspiration_score>  (312) 
None

>  <name>  (312) 
P65875

>  <HIPPO Pose ID>  (312) 
65875

>  <ref_pdb>  (312) 
Z0472a

>  <inchikey>  (312) 
KQKNLWKVNWUMHC-UHFFFAOYSA-N

>  <alias>  (312) 
None

>  <ref_mols>  (312) 
Z1719a,Z0472a

>  <subsites>  (312) 
1 - Z4590/B/203/1

>  <distance_score>  (312) 
0.872547

>  <HIPPO Compound ID>  (312) 
119043

>  <smiles>  (312) 
CCCNc1ncnc2cccnc12

>  <energy_score>  (312) 
-10.684195

$$$$
P65876
     RDKit          3D

 14 15  0  0  0  0  0  0  0  0999 V2000
   -2.5426    4.1635  -14.7060 C   0  0  0  0  0  0  0  0  0  0  0  0
   -2.2070    5.1427  -15.8208 C   0  0  0  0  0  0  0  0  0  0  0  0
   -3.3945    5.3649  -16.7482 C   0  0  0  0  0  0  0  0  0  0  0  0
   -4.3843    6.2161  -16.0908 N   0  0  0  0  0  0  0  0  0  0  0  0
   -5.6467    5.6446  -15.8911 C   0  0  0  0  0  0  0  0  0  0  0  0
   -6.0256    5.6129  -14.6071 N   0  0  0  0  0  0  0  0  0  0  0  0
   -7.2464    5.1230  -14.3730 C   0  0  0  0  0  0  0  0  0  0  0  0
   -8.1241    4.7211  -15.2885 N   0  0  0  0  0  0  0  0  0  0  0  0
   -7.7370    4.7447  -16.5552 C   0  0  0  0  0  0  0  0  0  0  0  0
   -8.6218    4.3414  -17.4661 N   0  0  0  0  0  0  0  0  0  0  0  0
   -8.2606    4.3331  -18.7667 C   0  0  0  0  0  0  0  0  0  0  0  0
   -7.0246    4.7323  -19.2232 C   0  0  0  0  0  0  0  0  0  0  0  0
   -6.1315    5.2219  -18.2976 C   0  0  0  0  0  0  0  0  0  0  0  0
   -6.4714    5.2055  -16.9303 C   0  0  0  0  0  0  0  0  0  0  0  0
  1  2  1  0
  2  3  1  0
  3  4  1  0
  4  5  1  0
  5  6  2  0
  6  7  1  0
  7  8  2  0
  8  9  1  0
  9 10  2  0
 10 11  1  0
 11 12  2  0
 12 13  1  0
 13 14  2  0
 14  5  1  0
 14  9  1  0
M  END
>  <tags>  (313) 
openbind_xx01zvns2b_c1_knitwork_impure,fragmenstein_placed,openbind_xx01zvns2b_c1_scaffolds_chemok_bbok,BulkDock Fragalysis export,openbind_xx01zvns2b_c1_scaffolds

>  <placement_batch>  (313) 
openbind_xx01zvns2b_c1_knitwork_impure

>  <inspiration_score>  (313) 
None

>  <name>  (313) 
P65876

>  <HIPPO Pose ID>  (313) 
65876

>  <ref_pdb>  (313) 
Z0472a

>  <inchikey>  (313) 
KKENKEIFXQCUPX-UHFFFAOYSA-N

>  <alias>  (313) 
None

>  <ref_mols>  (313) 
Z1719a,Z0472a

>  <subsites>  (313) 
1 - Z4590/B/203/1

>  <distance_score>  (313) 
0.684478

>  <HIPPO Compound ID>  (313) 
119044

>  <smiles>  (313) 
CCCNc1ncnc2ncccc12

>  <energy_score>  (313) 
-26.07898

$$$$
P65879
     RDKit          3D

 14 15  0  0  0  0  0  0  0  0999 V2000
   -3.1283    6.4302  -18.7298 C   0  0  0  0  0  0  0  0  0  0  0  0
   -3.5337    5.9936  -17.3197 C   0  0  2  0  0  0  0  0  0  0  0  0
   -2.7504    4.7324  -16.8955 C   0  0  0  0  0  0  0  0  0  0  0  0
   -3.0297    4.3074  -15.5206 N   0  0  0  0  0  0  0  0  0  0  0  0
   -4.9798    5.8381  -17.1046 N   0  0  0  0  0  0  0  0  0  0  0  0
   -5.4565    6.1204  -15.8281 C   0  0  0  0  0  0  0  0  0  0  0  0
   -6.6406    5.8652  -15.3766 N   0  0  0  0  0  0  0  0  0  0  0  0
   -7.4504    5.2688  -16.2807 C   0  0  0  0  0  0  0  0  0  0  0  0
   -9.0211    4.7762  -15.8744 S   0  0  0  0  0  0  0  0  0  0  0  0
   -9.3745    4.3384  -17.4929 C   0  0  0  0  0  0  0  0  0  0  0  0
   -8.2695    4.4622  -18.3047 C   0  0  0  0  0  0  0  0  0  0  0  0
   -7.1461    4.9667  -17.5861 C   0  0  0  0  0  0  0  0  0  0  0  0
   -5.7932    5.1944  -18.0436 C   0  0  0  0  0  0  0  0  0  0  0  0
   -5.4218    4.8226  -19.1500 O   0  0  0  0  0  0  0  0  0  0  0  0
  2  1  1  6
  2  3  1  0
  3  4  1  0
  2  5  1  0
  5  6  1  0
  6  7  2  0
  7  8  1  0
  8  9  1  0
  9 10  1  0
 10 11  2  0
 11 12  1  0
 12 13  1  0
 13 14  2  0
 13  5  1  0
 12  8  2  0
M  END
>  <tags>  (314) 
openbind_xx01zvns2b_c1_knitwork_impure,BulkDock Fragalysis export,fragmenstein_placed,openbind_xx01zvns2b_c1_scaffolds

>  <placement_batch>  (314) 
openbind_xx01zvns2b_c1_knitwork_impure

>  <inspiration_score>  (314) 
None

>  <name>  (314) 
P65879

>  <HIPPO Pose ID>  (314) 
65879

>  <ref_pdb>  (314) 
Z0472a

>  <inchikey>  (314) 
BONVFUQVDRFJAL-UHFFFAOYSA-N

>  <alias>  (314) 
None

>  <ref_mols>  (314) 
Z1719a,Z0472a

>  <subsites>  (314) 
1 - Z4590/B/203/1

>  <distance_score>  (314) 
0.70295

>  <HIPPO Compound ID>  (314) 
119048

>  <smiles>  (314) 
C[C@H](CN)n1cnc2sccc2c1=O

>  <energy_score>  (314) 
-49.706911

$$$$
P65880
     RDKit          3D

 14 15  0  0  0  0  0  0  0  0999 V2000
   -2.3321    4.3419  -14.8585 C   0  0  0  0  0  0  0  0  0  0  0  0
   -2.1848    5.2734  -16.0554 C   0  0  0  0  0  0  0  0  0  0  0  0
   -3.5118    5.4676  -16.7806 C   0  0  0  0  0  0  0  0  0  0  0  0
   -4.4112    6.2447  -15.9325 N   0  0  0  0  0  0  0  0  0  0  0  0
   -5.6838    5.6697  -15.7689 C   0  0  0  0  0  0  0  0  0  0  0  0
   -6.0604    5.5844  -14.4670 N   0  0  0  0  0  0  0  0  0  0  0  0
   -7.2682    5.0505  -14.2101 C   0  0  0  0  0  0  0  0  0  0  0  0
   -8.1429    4.6377  -15.1919 C   0  0  0  0  0  0  0  0  0  0  0  0
   -7.7484    4.7507  -16.5264 C   0  0  0  0  0  0  0  0  0  0  0  0
   -8.6011    4.3473  -17.5568 C   0  0  0  0  0  0  0  0  0  0  0  0
   -8.1632    4.4131  -18.8681 C   0  0  0  0  0  0  0  0  0  0  0  0
   -6.8976    4.9081  -19.1136 C   0  0  0  0  0  0  0  0  0  0  0  0
   -6.0692    5.3527  -18.1507 N   0  0  0  0  0  0  0  0  0  0  0  0
   -6.4803    5.2635  -16.8586 C   0  0  0  0  0  0  0  0  0  0  0  0
  1  2  1  0
  2  3  1  0
  3  4  1  0
  4  5  1  0
  5  6  2  0
  6  7  1  0
  7  8  2  0
  8  9  1  0
  9 10  2  0
 10 11  1  0
 11 12  2  0
 12 13  1  0
 13 14  2  0
 14  5  1  0
 14  9  1  0
M  END
>  <tags>  (315) 
openbind_xx01zvns2b_c1_knitwork_impure,BulkDock Fragalysis export,fragmenstein_placed,openbind_xx01zvns2b_c1_scaffolds

>  <placement_batch>  (315) 
openbind_xx01zvns2b_c1_knitwork_impure

>  <inspiration_score>  (315) 
None

>  <name>  (315) 
P65880

>  <HIPPO Pose ID>  (315) 
65880

>  <ref_pdb>  (315) 
Z0472a

>  <inchikey>  (315) 
QQMAPDIBICSLFM-UHFFFAOYSA-N

>  <alias>  (315) 
None

>  <ref_mols>  (315) 
Z1719a,Z0472a

>  <subsites>  (315) 
1 - Z4590/B/203/1

>  <distance_score>  (315) 
0.697517

>  <HIPPO Compound ID>  (315) 
119049

>  <smiles>  (315) 
CCCNc1nccc2cccnc12

>  <energy_score>  (315) 
-10.408852

$$$$
P65882
     RDKit          3D

 13 14  0  0  0  0  0  0  0  0999 V2000
   -2.5335    4.3519  -14.8010 C   0  0  0  0  0  0  0  0  0  0  0  0
   -3.2579    4.1836  -16.1236 C   0  0  0  0  0  0  0  0  0  0  0  0
   -3.5191    5.5014  -16.8437 C   0  0  0  0  0  0  0  0  0  0  0  0
   -4.4677    6.3475  -16.1276 N   0  0  0  0  0  0  0  0  0  0  0  0
   -5.7275    5.7898  -15.8792 C   0  0  0  0  0  0  0  0  0  0  0  0
   -6.0879    5.7540  -14.5789 N   0  0  0  0  0  0  0  0  0  0  0  0
   -7.2873    5.2480  -14.2573 C   0  0  0  0  0  0  0  0  0  0  0  0
   -8.2259    4.7984  -15.0865 N   0  0  0  0  0  0  0  0  0  0  0  0
   -7.8680    4.8242  -16.3916 C   0  0  0  0  0  0  0  0  0  0  0  0
   -8.7008    4.3930  -17.4622 C   0  0  0  0  0  0  0  0  0  0  0  0
   -8.0821    4.5126  -18.6814 C   0  0  0  0  0  0  0  0  0  0  0  0
   -6.5289    5.2035  -18.5451 S   0  0  0  0  0  0  0  0  0  0  0  0
   -6.6347    5.3034  -16.8299 C   0  0  0  0  0  0  0  0  0  0  0  0
  1  2  1  0
  2  3  1  0
  3  4  1  0
  4  5  1  0
  5  6  2  0
  6  7  1  0
  7  8  2  0
  8  9  1  0
  9 10  1  0
 10 11  2  0
 11 12  1  0
 12 13  1  0
 13  5  1  0
 13  9  2  0
M  END
>  <tags>  (316) 
openbind_xx01zvns2b_c1_knitwork_impure,fragmenstein_placed,openbind_xx01zvns2b_c1_scaffolds_chemok_bbok,BulkDock Fragalysis export,openbind_xx01zvns2b_c1_scaffolds

>  <placement_batch>  (316) 
openbind_xx01zvns2b_c1_knitwork_impure

>  <inspiration_score>  (316) 
None

>  <name>  (316) 
P65882

>  <HIPPO Pose ID>  (316) 
65882

>  <ref_pdb>  (316) 
Z0472a

>  <inchikey>  (316) 
CMOGSSRZYHIDAV-UHFFFAOYSA-N

>  <alias>  (316) 
None

>  <ref_mols>  (316) 
Z1719a,Z0472a

>  <subsites>  (316) 
1 - Z4590/B/203/1

>  <distance_score>  (316) 
0.994367

>  <HIPPO Compound ID>  (316) 
119052

>  <smiles>  (316) 
CCCNc1ncnc2ccsc12

>  <energy_score>  (316) 
-31.502988

$$$$
P65941
     RDKit          3D

 14 15  0  0  0  0  0  0  0  0999 V2000
   -2.8273    6.2924  -18.1962 N   0  0  0  0  0  0  0  0  0  0  0  0
   -3.3459    5.9614  -17.2090 C   0  0  0  0  0  0  0  0  0  0  0  0
   -3.9171    5.4973  -15.9231 C   0  0  2  0  0  0  0  0  0  0  0  0
   -3.2020    4.2963  -15.4187 N   0  0  0  0  0  0  0  0  0  0  0  0
   -5.4312    5.3051  -15.8497 C   0  0  0  0  0  0  0  0  0  0  0  0
   -5.9095    5.4522  -14.5809 N   0  0  0  0  0  0  0  0  0  0  0  0
   -7.2063    5.2120  -14.3819 C   0  0  0  0  0  0  0  0  0  0  0  0
   -8.0897    4.8880  -15.3208 N   0  0  0  0  0  0  0  0  0  0  0  0
   -7.6273    4.7381  -16.5639 C   0  0  0  0  0  0  0  0  0  0  0  0
   -8.5512    4.3787  -17.5350 C   0  0  0  0  0  0  0  0  0  0  0  0
   -8.1956    4.2328  -18.8723 C   0  0  0  0  0  0  0  0  0  0  0  0
   -6.8776    4.4161  -19.2470 C   0  0  0  0  0  0  0  0  0  0  0  0
   -5.9262    4.7473  -18.2867 C   0  0  0  0  0  0  0  0  0  0  0  0
   -6.2784    4.9366  -16.9225 C   0  0  0  0  0  0  0  0  0  0  0  0
  1  2  3  0
  2  3  1  0
  3  4  1  6
  3  5  1  0
  5  6  2  0
  6  7  1  0
  7  8  2  0
  8  9  1  0
  9 10  2  0
 10 11  1  0
 11 12  2  0
 12 13  1  0
 13 14  2  0
 14  5  1  0
 14  9  1  0
M  END
>  <tags>  (317) 
openbind_xx01zvns2b_c1_knitwork_impure,BulkDock Fragalysis export,fragmenstein_placed,openbind_xx01zvns2b_c1_scaffolds

>  <placement_batch>  (317) 
openbind_xx01zvns2b_c1_knitwork_impure

>  <inspiration_score>  (317) 
None

>  <name>  (317) 
P65941

>  <HIPPO Pose ID>  (317) 
65941

>  <ref_pdb>  (317) 
Z1719a

>  <inchikey>  (317) 
LNADTMGWCJSRIP-UHFFFAOYSA-N

>  <alias>  (317) 
None

>  <ref_mols>  (317) 
Z0472a,Z1719a

>  <subsites>  (317) 
1 - Z4590/B/203/1

>  <distance_score>  (317) 
0.656744

>  <HIPPO Compound ID>  (317) 
119110

>  <smiles>  (317) 
N#C[C@H](N)c1ncnc2ccccc12

>  <energy_score>  (317) 
-8.506119

$$$$
P65942
     RDKit          3D

 17 18  0  0  0  0  0  0  0  0999 V2000
    0.0734    6.4852  -19.8810 C   0  0  0  0  0  0  0  0  0  0  0  0
   -1.2778    6.0242  -20.4105 C   0  0  0  0  0  0  0  0  0  0  0  0
   -1.9732    5.1085  -19.5055 N   0  0  0  0  0  0  0  0  0  0  0  0
   -2.5798    5.8056  -18.3579 C   0  0  0  0  0  0  0  0  0  0  0  0
   -3.2667    4.8138  -17.3908 C   0  0  0  0  0  0  0  0  0  0  0  0
   -3.9291    5.5214  -16.2805 N   0  0  0  0  0  0  0  0  0  0  0  0
   -3.0782    5.5912  -15.0835 C   0  0  0  0  0  0  0  0  0  0  0  0
   -5.2768    5.2135  -15.9773 C   0  0  0  0  0  0  0  0  0  0  0  0
   -5.5964    5.1711  -14.6635 N   0  0  0  0  0  0  0  0  0  0  0  0
   -6.8495    4.8505  -14.3275 C   0  0  0  0  0  0  0  0  0  0  0  0
   -7.8437    4.5756  -15.1650 N   0  0  0  0  0  0  0  0  0  0  0  0
   -7.5446    4.6047  -16.4612 C   0  0  0  0  0  0  0  0  0  0  0  0
   -8.5529    4.2455  -17.3464 C   0  0  0  0  0  0  0  0  0  0  0  0
   -8.3469    4.2187  -18.7217 C   0  0  0  0  0  0  0  0  0  0  0  0
   -7.1242    4.6156  -19.2245 C   0  0  0  0  0  0  0  0  0  0  0  0
   -6.1347    5.0621  -18.3619 C   0  0  0  0  0  0  0  0  0  0  0  0
   -6.2788    4.9761  -16.9554 C   0  0  0  0  0  0  0  0  0  0  0  0
  1  2  1  0
  2  3  1  0
  3  4  1  0
  4  5  1  0
  5  6  1  0
  6  7  1  0
  6  8  1  0
  8  9  2  0
  9 10  1  0
 10 11  2  0
 11 12  1  0
 12 13  2  0
 13 14  1  0
 14 15  2  0
 15 16  1  0
 16 17  2  0
 17  8  1  0
 17 12  1  0
M  END
>  <tags>  (318) 
openbind_xx01zvns2b_c1_knitwork_impure,BulkDock Fragalysis export,fragmenstein_placed,openbind_xx01zvns2b_c1_scaffolds

>  <placement_batch>  (318) 
openbind_xx01zvns2b_c1_knitwork_impure

>  <inspiration_score>  (318) 
None

>  <name>  (318) 
P65942

>  <HIPPO Pose ID>  (318) 
65942

>  <ref_pdb>  (318) 
Z1719a

>  <inchikey>  (318) 
AXEFTCTYVXWSFI-UHFFFAOYSA-N

>  <alias>  (318) 
None

>  <ref_mols>  (318) 
Z0472a,Z1719a

>  <subsites>  (318) 
1 - Z4590/B/203/1

>  <distance_score>  (318) 
0.838018

>  <HIPPO Compound ID>  (318) 
119115

>  <smiles>  (318) 
CCNCCN(C)c1ncnc2ccccc12

>  <energy_score>  (318) 
-20.410955

$$$$
P65943
     RDKit          3D

 17 18  0  0  0  0  0  0  0  0999 V2000
   -3.1894    4.4469  -15.2975 C   0  0  0  0  0  0  0  0  0  0  0  0
   -3.8858    5.1375  -16.4008 N   0  0  0  0  0  0  0  0  0  0  0  0
   -5.2734    5.1767  -16.0800 C   0  0  0  0  0  0  0  0  0  0  0  0
   -5.6299    5.4168  -14.8014 N   0  0  0  0  0  0  0  0  0  0  0  0
   -6.9307    5.3151  -14.5050 C   0  0  0  0  0  0  0  0  0  0  0  0
   -7.9203    5.0319  -15.3538 N   0  0  0  0  0  0  0  0  0  0  0  0
   -7.5647    4.7872  -16.6177 C   0  0  0  0  0  0  0  0  0  0  0  0
   -8.5565    4.4529  -17.5313 C   0  0  0  0  0  0  0  0  0  0  0  0
   -8.2719    4.2333  -18.8789 C   0  0  0  0  0  0  0  0  0  0  0  0
   -6.9613    4.2982  -19.3214 C   0  0  0  0  0  0  0  0  0  0  0  0
   -5.9490    4.5787  -18.4145 C   0  0  0  0  0  0  0  0  0  0  0  0
   -6.2351    4.8571  -17.0594 C   0  0  0  0  0  0  0  0  0  0  0  0
   -3.2477    6.4177  -16.8751 C   0  0  0  0  0  0  0  0  0  0  0  0
   -4.0464    7.1375  -17.9815 C   0  0  0  0  0  0  0  0  0  0  0  0
   -3.0538    7.4168  -15.7149 C   0  0  0  0  0  0  0  0  0  0  0  0
   -1.8391    6.0943  -17.4990 C   0  0  0  0  0  0  0  0  0  0  0  0
   -1.8861    5.0260  -18.5106 N   0  0  0  0  0  0  0  0  0  0  0  0
  1  2  1  0
  2  3  1  0
  3  4  2  0
  4  5  1  0
  5  6  2  0
  6  7  1  0
  7  8  2  0
  8  9  1  0
  9 10  2  0
 10 11  1  0
 11 12  2  0
  2 13  1  0
 13 14  1  0
 13 15  1  0
 13 16  1  0
 16 17  1  0
 12  3  1  0
 12  7  1  0
M  END
>  <tags>  (319) 
openbind_xx01zvns2b_c1_knitwork_impure,BulkDock Fragalysis export,fragmenstein_placed,openbind_xx01zvns2b_c1_scaffolds

>  <placement_batch>  (319) 
openbind_xx01zvns2b_c1_knitwork_impure

>  <inspiration_score>  (319) 
None

>  <name>  (319) 
P65943

>  <HIPPO Pose ID>  (319) 
65943

>  <ref_pdb>  (319) 
Z1719a

>  <inchikey>  (319) 
UZZCGJVQVAIKGT-UHFFFAOYSA-N

>  <alias>  (319) 
None

>  <ref_mols>  (319) 
Z0472a,Z1719a

>  <subsites>  (319) 
1 - Z4590/B/203/1

>  <distance_score>  (319) 
0.995265

>  <HIPPO Compound ID>  (319) 
119116

>  <smiles>  (319) 
CN(c1ncnc2ccccc12)C(C)(C)CN

>  <energy_score>  (319) 
-35.618381

$$$$
P65944
     RDKit          3D

 17 18  0  0  0  0  0  0  0  0999 V2000
   -3.3354    3.5198  -14.2522 C   0  0  0  0  0  0  0  0  0  0  0  0
   -2.9853    4.8512  -14.9200 C   0  0  0  0  0  0  0  0  0  0  0  0
   -2.8885    6.0018  -13.9158 C   0  0  0  0  0  0  0  0  0  0  0  0
   -3.8386    5.1882  -16.0991 N   0  0  0  0  0  0  0  0  0  0  0  0
   -3.0976    5.4134  -17.3531 C   0  0  0  0  0  0  0  0  0  0  0  0
   -3.3930    6.7703  -18.0280 C   0  0  0  0  0  0  0  0  0  0  0  0
   -3.3047    7.9046  -17.0953 N   0  0  0  0  0  0  0  0  0  0  0  0
   -5.2243    5.1129  -15.9695 C   0  0  0  0  0  0  0  0  0  0  0  0
   -5.6677    5.2974  -14.7073 N   0  0  0  0  0  0  0  0  0  0  0  0
   -6.9703    5.1783  -14.4468 C   0  0  0  0  0  0  0  0  0  0  0  0
   -7.9205    4.9209  -15.3322 N   0  0  0  0  0  0  0  0  0  0  0  0
   -7.5164    4.7423  -16.5852 C   0  0  0  0  0  0  0  0  0  0  0  0
   -8.5196    4.4367  -17.4955 C   0  0  0  0  0  0  0  0  0  0  0  0
   -8.2624    4.2657  -18.8496 C   0  0  0  0  0  0  0  0  0  0  0  0
   -6.9638    4.3710  -19.3003 C   0  0  0  0  0  0  0  0  0  0  0  0
   -5.9395    4.6409  -18.3959 C   0  0  0  0  0  0  0  0  0  0  0  0
   -6.1702    4.8484  -17.0058 C   0  0  0  0  0  0  0  0  0  0  0  0
  1  2  1  0
  2  3  1  0
  2  4  1  0
  4  5  1  0
  5  6  1  0
  6  7  1  0
  4  8  1  0
  8  9  2  0
  9 10  1  0
 10 11  2  0
 11 12  1  0
 12 13  2  0
 13 14  1  0
 14 15  2  0
 15 16  1  0
 16 17  2  0
 17  8  1  0
 17 12  1  0
M  END
>  <tags>  (320) 
openbind_xx01zvns2b_c1_knitwork_impure,BulkDock Fragalysis export,fragmenstein_placed,openbind_xx01zvns2b_c1_scaffolds

>  <placement_batch>  (320) 
openbind_xx01zvns2b_c1_knitwork_impure

>  <inspiration_score>  (320) 
None

>  <name>  (320) 
P65944

>  <HIPPO Pose ID>  (320) 
65944

>  <ref_pdb>  (320) 
Z1719a

>  <inchikey>  (320) 
ANZTULCUOREBRV-UHFFFAOYSA-N

>  <alias>  (320) 
None

>  <ref_mols>  (320) 
Z0472a,Z1719a

>  <subsites>  (320) 
1 - Z4590/B/203/1

>  <distance_score>  (320) 
0.837318

>  <HIPPO Compound ID>  (320) 
119122

>  <smiles>  (320) 
CC(C)N(CCN)c1ncnc2ccccc12

>  <energy_score>  (320) 
-24.063724

$$$$
P65945
     RDKit          3D

 16 17  0  0  0  0  0  0  0  0999 V2000
   -3.1837    3.8813  -14.2279 C   0  0  0  0  0  0  0  0  0  0  0  0
   -3.2025    5.2812  -14.8341 C   0  0  0  0  0  0  0  0  0  0  0  0
   -4.0037    5.3642  -16.0751 N   0  0  0  0  0  0  0  0  0  0  0  0
   -3.2551    4.9924  -17.2855 C   0  0  0  0  0  0  0  0  0  0  0  0
   -2.7166    6.2401  -18.0256 C   0  0  0  0  0  0  0  0  0  0  0  0
   -3.6993    7.3100  -18.2075 N   0  0  0  0  0  0  0  0  0  0  0  0
   -5.3864    5.2053  -15.9166 C   0  0  0  0  0  0  0  0  0  0  0  0
   -5.8155    5.2990  -14.6366 N   0  0  0  0  0  0  0  0  0  0  0  0
   -7.0946    5.0354  -14.3644 C   0  0  0  0  0  0  0  0  0  0  0  0
   -8.0289    4.7115  -15.2467 N   0  0  0  0  0  0  0  0  0  0  0  0
   -7.6399    4.6505  -16.5166 C   0  0  0  0  0  0  0  0  0  0  0  0
   -8.6134    4.2775  -17.4339 C   0  0  0  0  0  0  0  0  0  0  0  0
   -8.3502    4.1982  -18.7962 C   0  0  0  0  0  0  0  0  0  0  0  0
   -7.0954    4.5385  -19.2554 C   0  0  0  0  0  0  0  0  0  0  0  0
   -6.1240    4.9594  -18.3567 C   0  0  0  0  0  0  0  0  0  0  0  0
   -6.3310    4.9507  -16.9509 C   0  0  0  0  0  0  0  0  0  0  0  0
  1  2  1  0
  2  3  1  0
  3  4  1  0
  4  5  1  0
  5  6  1  0
  3  7  1  0
  7  8  2  0
  8  9  1  0
  9 10  2  0
 10 11  1  0
 11 12  2  0
 12 13  1  0
 13 14  2  0
 14 15  1  0
 15 16  2  0
 16  7  1  0
 16 11  1  0
M  END
>  <tags>  (321) 
openbind_xx01zvns2b_c1_knitwork_impure,BulkDock Fragalysis export,fragmenstein_placed,openbind_xx01zvns2b_c1_scaffolds

>  <placement_batch>  (321) 
openbind_xx01zvns2b_c1_knitwork_impure

>  <inspiration_score>  (321) 
None

>  <name>  (321) 
P65945

>  <HIPPO Pose ID>  (321) 
65945

>  <ref_pdb>  (321) 
Z1719a

>  <inchikey>  (321) 
QLEVWPVEINQAOG-UHFFFAOYSA-N

>  <alias>  (321) 
None

>  <ref_mols>  (321) 
Z0472a,Z1719a

>  <subsites>  (321) 
1 - Z4590/B/203/1

>  <distance_score>  (321) 
0.80461

>  <HIPPO Compound ID>  (321) 
119131

>  <smiles>  (321) 
CCN(CCN)c1ncnc2ccccc12

>  <energy_score>  (321) 
-32.295154

$$$$
P65946
     RDKit          3D

 21 22  0  0  0  0  0  0  0  0999 V2000
   -1.9483    5.6733  -20.5715 C   0  0  0  0  0  0  0  0  0  0  0  0
   -1.1040    6.2800  -19.4391 C   0  0  0  0  0  0  0  0  0  0  0  0
    0.1290    6.9261  -20.0972 C   0  0  0  0  0  0  0  0  0  0  0  0
   -1.9036    7.2210  -18.6162 N   0  0  0  0  0  0  0  0  0  0  0  0
   -3.1339    6.6312  -18.0245 C   0  0  0  0  0  0  0  0  0  0  0  0
   -3.0242    5.2560  -17.3135 C   0  0  0  0  0  0  0  0  0  0  0  0
   -3.8241    5.1689  -16.0872 N   0  0  0  0  0  0  0  0  0  0  0  0
   -3.0924    4.6972  -14.9036 C   0  0  0  0  0  0  0  0  0  0  0  0
   -5.2070    5.0495  -15.9611 C   0  0  0  0  0  0  0  0  0  0  0  0
   -5.6404    5.1356  -14.6783 N   0  0  0  0  0  0  0  0  0  0  0  0
   -6.9441    5.0155  -14.4250 C   0  0  0  0  0  0  0  0  0  0  0  0
   -7.8977    4.8193  -15.3229 N   0  0  0  0  0  0  0  0  0  0  0  0
   -7.4964    4.7038  -16.5850 C   0  0  0  0  0  0  0  0  0  0  0  0
   -8.4972    4.4281  -17.5069 C   0  0  0  0  0  0  0  0  0  0  0  0
   -8.2352    4.3036  -18.8652 C   0  0  0  0  0  0  0  0  0  0  0  0
   -6.9370    4.4418  -19.3103 C   0  0  0  0  0  0  0  0  0  0  0  0
   -5.9174    4.7021  -18.3990 C   0  0  0  0  0  0  0  0  0  0  0  0
   -6.1523    4.8397  -17.0042 C   0  0  0  0  0  0  0  0  0  0  0  0
   -1.1317    8.0857  -17.6954 C   0  0  0  0  0  0  0  0  0  0  0  0
   -1.9502    9.2859  -17.1902 C   0  0  0  0  0  0  0  0  0  0  0  0
   -0.4832    7.3643  -16.5118 C   0  0  0  0  0  0  0  0  0  0  0  0
  1  2  1  0
  2  3  1  0
  2  4  1  0
  4  5  1  0
  5  6  1  0
  6  7  1  0
  7  8  1  0
  7  9  1  0
  9 10  2  0
 10 11  1  0
 11 12  2  0
 12 13  1  0
 13 14  2  0
 14 15  1  0
 15 16  2  0
 16 17  1  0
 17 18  2  0
  4 19  1  0
 19 20  1  0
 19 21  1  0
 18  9  1  0
 18 13  1  0
M  END
>  <tags>  (322) 
openbind_xx01zvns2b_c1_knitwork_impure,fragmenstein_placed,openbind_xx01zvns2b_c1_scaffolds_chemok_bbok,BulkDock Fragalysis export,openbind_xx01zvns2b_c1_scaffolds

>  <placement_batch>  (322) 
openbind_xx01zvns2b_c1_knitwork_impure

>  <inspiration_score>  (322) 
None

>  <name>  (322) 
P65946

>  <HIPPO Pose ID>  (322) 
65946

>  <ref_pdb>  (322) 
Z1719a

>  <inchikey>  (322) 
XKAJRNJXYCTLPG-UHFFFAOYSA-N

>  <alias>  (322) 
None

>  <ref_mols>  (322) 
Z0472a,Z1719a

>  <subsites>  (322) 
1 - Z4590/B/203/1

>  <distance_score>  (322) 
0.857415

>  <HIPPO Compound ID>  (322) 
119137

>  <smiles>  (322) 
CC(C)N(CCN(C)c1ncnc2ccccc12)C(C)C

>  <energy_score>  (322) 
-40.564581

$$$$
P65947
     RDKit          3D

 16 17  0  0  0  0  0  0  0  0999 V2000
   -1.3563    6.7165  -17.7423 C   0  0  0  0  0  0  0  0  0  0  0  0
   -2.7178    6.2163  -18.2364 C   0  0  2  0  0  0  0  0  0  0  0  0
   -3.6710    7.3395  -18.2278 N   0  0  0  0  0  0  0  0  0  0  0  0
   -3.2085    4.9969  -17.3941 C   0  0  0  0  0  0  0  0  0  0  0  0
   -3.9014    5.4230  -16.1609 N   0  0  0  0  0  0  0  0  0  0  0  0
   -3.0797    5.2306  -14.9542 C   0  0  0  0  0  0  0  0  0  0  0  0
   -5.2689    5.1564  -15.9334 C   0  0  0  0  0  0  0  0  0  0  0  0
   -5.6287    5.1291  -14.6278 N   0  0  0  0  0  0  0  0  0  0  0  0
   -6.8937    4.8390  -14.3153 C   0  0  0  0  0  0  0  0  0  0  0  0
   -7.8722    4.5805  -15.1720 N   0  0  0  0  0  0  0  0  0  0  0  0
   -7.5433    4.5972  -16.4599 C   0  0  0  0  0  0  0  0  0  0  0  0
   -8.5532    4.2556  -17.3504 C   0  0  0  0  0  0  0  0  0  0  0  0
   -8.3439    4.2232  -18.7237 C   0  0  0  0  0  0  0  0  0  0  0  0
   -7.1113    4.5927  -19.2179 C   0  0  0  0  0  0  0  0  0  0  0  0
   -6.1132    5.0074  -18.3465 C   0  0  0  0  0  0  0  0  0  0  0  0
   -6.2586    4.9375  -16.9358 C   0  0  0  0  0  0  0  0  0  0  0  0
  2  1  1  1
  2  3  1  0
  2  4  1  0
  4  5  1  0
  5  6  1  0
  5  7  1  0
  7  8  2  0
  8  9  1  0
  9 10  2  0
 10 11  1  0
 11 12  2  0
 12 13  1  0
 13 14  2  0
 14 15  1  0
 15 16  2  0
 16  7  1  0
 16 11  1  0
M  END
>  <tags>  (323) 
openbind_xx01zvns2b_c1_knitwork_impure,fragmenstein_placed,openbind_xx01zvns2b_c1_scaffolds_chemok_bbok,BulkDock Fragalysis export,openbind_xx01zvns2b_c1_scaffolds

>  <placement_batch>  (323) 
openbind_xx01zvns2b_c1_knitwork_impure

>  <inspiration_score>  (323) 
None

>  <name>  (323) 
P65947

>  <HIPPO Pose ID>  (323) 
65947

>  <ref_pdb>  (323) 
Z1719a

>  <inchikey>  (323) 
NNBHYCZETFFDQK-UHFFFAOYSA-N

>  <alias>  (323) 
None

>  <ref_mols>  (323) 
Z0472a,Z1719a

>  <subsites>  (323) 
1 - Z4590/B/203/1

>  <distance_score>  (323) 
0.951026

>  <HIPPO Compound ID>  (323) 
119143

>  <smiles>  (323) 
C[C@H](N)CN(C)c1ncnc2ccccc12

>  <energy_score>  (323) 
-15.826081

$$$$
P65948
     RDKit          3D

 15 16  0  0  0  0  0  0  0  0999 V2000
   -3.0261    4.9562  -14.9954 C   0  0  0  0  0  0  0  0  0  0  0  0
   -3.8408    5.2740  -16.1773 N   0  0  0  0  0  0  0  0  0  0  0  0
   -3.1267    5.1235  -17.4498 C   0  0  0  0  0  0  0  0  0  0  0  0
   -3.0788    6.4530  -18.2322 C   0  0  0  0  0  0  0  0  0  0  0  0
   -2.3412    7.4860  -17.4887 N   0  0  0  0  0  0  0  0  0  0  0  0
   -5.2150    5.0897  -15.9833 C   0  0  0  0  0  0  0  0  0  0  0  0
   -5.5927    5.1462  -14.6827 N   0  0  0  0  0  0  0  0  0  0  0  0
   -6.8768    4.9636  -14.3719 C   0  0  0  0  0  0  0  0  0  0  0  0
   -7.8613    4.7365  -15.2282 N   0  0  0  0  0  0  0  0  0  0  0  0
   -7.5172    4.6571  -16.5093 C   0  0  0  0  0  0  0  0  0  0  0  0
   -8.5511    4.3530  -17.3853 C   0  0  0  0  0  0  0  0  0  0  0  0
   -8.3522    4.2490  -18.7558 C   0  0  0  0  0  0  0  0  0  0  0  0
   -7.0890    4.4623  -19.2626 C   0  0  0  0  0  0  0  0  0  0  0  0
   -6.0442    4.7866  -18.4034 C   0  0  0  0  0  0  0  0  0  0  0  0
   -6.2029    4.8625  -16.9899 C   0  0  0  0  0  0  0  0  0  0  0  0
  1  2  1  0
  2  3  1  0
  3  4  1  0
  4  5  1  0
  2  6  1  0
  6  7  2  0
  7  8  1  0
  8  9  2  0
  9 10  1  0
 10 11  2  0
 11 12  1  0
 12 13  2  0
 13 14  1  0
 14 15  2  0
 15  6  1  0
 15 10  1  0
M  END
>  <tags>  (324) 
openbind_xx01zvns2b_c1_knitwork_impure,BulkDock Fragalysis export,fragmenstein_placed,openbind_xx01zvns2b_c1_scaffolds

>  <placement_batch>  (324) 
openbind_xx01zvns2b_c1_knitwork_impure

>  <inspiration_score>  (324) 
None

>  <name>  (324) 
P65948

>  <HIPPO Pose ID>  (324) 
65948

>  <ref_pdb>  (324) 
Z1719a

>  <inchikey>  (324) 
HKWKNZGQKLDKSF-UHFFFAOYSA-N

>  <alias>  (324) 
None

>  <ref_mols>  (324) 
Z0472a,Z1719a

>  <subsites>  (324) 
1 - Z4590/B/203/1

>  <distance_score>  (324) 
0.836836

>  <HIPPO Compound ID>  (324) 
119147

>  <smiles>  (324) 
CN(CCN)c1ncnc2ccccc12

>  <energy_score>  (324) 
-20.533454

$$$$
P65950
     RDKit          3D

 18 19  0  0  0  0  0  0  0  0999 V2000
    0.3736    6.7936  -13.8278 C   0  0  0  0  0  0  0  0  0  0  0  0
   -0.9882    6.1302  -13.6966 C   0  0  0  0  0  0  0  0  0  0  0  0
   -1.7242    6.0931  -15.0378 C   0  0  0  0  0  0  0  0  0  0  0  0
   -3.0901    5.4054  -14.9034 C   0  0  0  0  0  0  0  0  0  0  0  0
   -3.9109    5.4999  -16.1419 N   0  0  0  0  0  0  0  0  0  0  0  0
   -3.2506    4.9310  -17.3401 C   0  0  0  0  0  0  0  0  0  0  0  0
   -2.6576    6.0426  -18.2469 C   0  0  0  0  0  0  0  0  0  0  0  0
   -3.4660    7.2661  -18.2949 N   0  0  0  0  0  0  0  0  0  0  0  0
   -5.2779    5.1741  -15.9038 C   0  0  0  0  0  0  0  0  0  0  0  0
   -5.6369    5.0790  -14.6027 N   0  0  0  0  0  0  0  0  0  0  0  0
   -6.8964    4.7513  -14.3030 C   0  0  0  0  0  0  0  0  0  0  0  0
   -7.8694    4.5080  -15.1704 N   0  0  0  0  0  0  0  0  0  0  0  0
   -7.5394    4.5774  -16.4557 C   0  0  0  0  0  0  0  0  0  0  0  0
   -8.5354    4.2367  -17.3619 C   0  0  0  0  0  0  0  0  0  0  0  0
   -8.3132    4.2408  -18.7335 C   0  0  0  0  0  0  0  0  0  0  0  0
   -7.0872    4.6574  -19.2075 C   0  0  0  0  0  0  0  0  0  0  0  0
   -6.1123    5.0889  -18.3194 C   0  0  0  0  0  0  0  0  0  0  0  0
   -6.2628    4.9665  -16.9143 C   0  0  0  0  0  0  0  0  0  0  0  0
  1  2  1  0
  2  3  1  0
  3  4  1  0
  4  5  1  0
  5  6  1  0
  6  7  1  0
  7  8  1  0
  5  9  1  0
  9 10  2  0
 10 11  1  0
 11 12  2  0
 12 13  1  0
 13 14  2  0
 14 15  1  0
 15 16  2  0
 16 17  1  0
 17 18  2  0
 18  9  1  0
 18 13  1  0
M  END
>  <tags>  (325) 
openbind_xx01zvns2b_c1_knitwork_impure,BulkDock Fragalysis export,fragmenstein_placed,openbind_xx01zvns2b_c1_scaffolds

>  <placement_batch>  (325) 
openbind_xx01zvns2b_c1_knitwork_impure

>  <inspiration_score>  (325) 
None

>  <name>  (325) 
P65950

>  <HIPPO Pose ID>  (325) 
65950

>  <ref_pdb>  (325) 
Z1719a

>  <inchikey>  (325) 
VQOKNOXNMVYFIF-UHFFFAOYSA-N

>  <alias>  (325) 
None

>  <ref_mols>  (325) 
Z0472a,Z1719a

>  <subsites>  (325) 
1 - Z4590/B/203/1

>  <distance_score>  (325) 
0.796815

>  <HIPPO Compound ID>  (325) 
119150

>  <smiles>  (325) 
CCCCN(CCN)c1ncnc2ccccc12

>  <energy_score>  (325) 
-17.807845

$$$$
P65951
     RDKit          3D

 16 17  0  0  0  0  0  0  0  0999 V2000
   -4.0038    8.0653  -17.9336 N   0  0  0  0  0  0  0  0  0  0  0  0
   -3.5881    7.0093  -17.6889 C   0  0  0  0  0  0  0  0  0  0  0  0
   -3.0647    5.6678  -17.4308 C   0  0  0  0  0  0  0  0  0  0  0  0
   -3.7466    4.9140  -16.2729 C   0  0  1  0  0  0  0  0  0  0  0  0
   -2.8948    5.0531  -14.9826 C   0  0  0  0  0  0  0  0  0  0  0  0
   -2.7368    6.4428  -14.5515 N   0  0  0  0  0  0  0  0  0  0  0  0
   -5.2525    5.0704  -16.0384 C   0  0  0  0  0  0  0  0  0  0  0  0
   -5.6079    5.2985  -14.7488 N   0  0  0  0  0  0  0  0  0  0  0  0
   -6.9117    5.2417  -14.4508 C   0  0  0  0  0  0  0  0  0  0  0  0
   -7.9010    4.9853  -15.3029 N   0  0  0  0  0  0  0  0  0  0  0  0
   -7.5553    4.7657  -16.5732 C   0  0  0  0  0  0  0  0  0  0  0  0
   -8.5715    4.4579  -17.4674 C   0  0  0  0  0  0  0  0  0  0  0  0
   -8.3254    4.2639  -18.8236 C   0  0  0  0  0  0  0  0  0  0  0  0
   -7.0293    4.3493  -19.2962 C   0  0  0  0  0  0  0  0  0  0  0  0
   -5.9897    4.6158  -18.4135 C   0  0  0  0  0  0  0  0  0  0  0  0
   -6.2254    4.8280  -17.0337 C   0  0  0  0  0  0  0  0  0  0  0  0
  1  2  3  0
  2  3  1  0
  4  3  1  6
  4  5  1  0
  5  6  1  0
  4  7  1  0
  7  8  2  0
  8  9  1  0
  9 10  2  0
 10 11  1  0
 11 12  2  0
 12 13  1  0
 13 14  2  0
 14 15  1  0
 15 16  2  0
 16  7  1  0
 16 11  1  0
M  END
>  <tags>  (326) 
openbind_xx01zvns2b_c1_knitwork_impure,BulkDock Fragalysis export,fragmenstein_placed,openbind_xx01zvns2b_c1_scaffolds

>  <placement_batch>  (326) 
openbind_xx01zvns2b_c1_knitwork_impure

>  <inspiration_score>  (326) 
None

>  <name>  (326) 
P65951

>  <HIPPO Pose ID>  (326) 
65951

>  <ref_pdb>  (326) 
Z1719a

>  <inchikey>  (326) 
DANFNYKHKSMNFE-UHFFFAOYSA-N

>  <alias>  (326) 
None

>  <ref_mols>  (326) 
Z0472a,Z1719a

>  <subsites>  (326) 
1 - Z4590/B/203/1

>  <distance_score>  (326) 
0.974981

>  <HIPPO Compound ID>  (326) 
119151

>  <smiles>  (326) 
N#CC[C@@H](CN)c1ncnc2ccccc12

>  <energy_score>  (326) 
-10.641858

$$$$
P65952
     RDKit          3D

 18 19  0  0  0  0  0  0  0  0999 V2000
   -4.2265    7.2865  -20.8437 C   0  0  0  0  0  0  0  0  0  0  0  0
   -3.0994    6.3651  -20.3924 C   0  0  0  0  0  0  0  0  0  0  0  0
   -2.4332    6.8182  -19.1702 N   0  0  0  0  0  0  0  0  0  0  0  0
   -3.2334    6.6285  -17.9511 C   0  0  0  0  0  0  0  0  0  0  0  0
   -3.1551    5.2107  -17.3475 C   0  0  0  0  0  0  0  0  0  0  0  0
   -3.9232    5.1048  -16.1016 N   0  0  0  0  0  0  0  0  0  0  0  0
   -3.1239    4.9463  -14.8706 C   0  0  0  0  0  0  0  0  0  0  0  0
   -3.2542    3.5519  -14.2677 C   0  0  0  0  0  0  0  0  0  0  0  0
   -5.3075    5.0814  -15.9551 C   0  0  0  0  0  0  0  0  0  0  0  0
   -5.7298    5.2541  -14.6805 N   0  0  0  0  0  0  0  0  0  0  0  0
   -7.0282    5.1271  -14.4041 C   0  0  0  0  0  0  0  0  0  0  0  0
   -7.9902    4.8716  -15.2790 N   0  0  0  0  0  0  0  0  0  0  0  0
   -7.6046    4.7138  -16.5412 C   0  0  0  0  0  0  0  0  0  0  0  0
   -8.6131    4.4022  -17.4442 C   0  0  0  0  0  0  0  0  0  0  0  0
   -8.3686    4.2524  -18.8039 C   0  0  0  0  0  0  0  0  0  0  0  0
   -7.0815    4.4071  -19.2710 C   0  0  0  0  0  0  0  0  0  0  0  0
   -6.0569    4.7045  -18.3785 C   0  0  0  0  0  0  0  0  0  0  0  0
   -6.2687    4.8489  -16.9806 C   0  0  0  0  0  0  0  0  0  0  0  0
  1  2  1  0
  2  3  1  0
  3  4  1  0
  4  5  1  0
  5  6  1  0
  6  7  1  0
  7  8  1  0
  6  9  1  0
  9 10  2  0
 10 11  1  0
 11 12  2  0
 12 13  1  0
 13 14  2  0
 14 15  1  0
 15 16  2  0
 16 17  1  0
 17 18  2  0
 18  9  1  0
 18 13  1  0
M  END
>  <tags>  (327) 
openbind_xx01zvns2b_c1_knitwork_impure,BulkDock Fragalysis export,fragmenstein_placed,openbind_xx01zvns2b_c1_scaffolds

>  <placement_batch>  (327) 
openbind_xx01zvns2b_c1_knitwork_impure

>  <inspiration_score>  (327) 
None

>  <name>  (327) 
P65952

>  <HIPPO Pose ID>  (327) 
65952

>  <ref_pdb>  (327) 
Z1719a

>  <inchikey>  (327) 
TXIHSFVZXCWFGJ-UHFFFAOYSA-N

>  <alias>  (327) 
None

>  <ref_mols>  (327) 
Z0472a,Z1719a

>  <subsites>  (327) 
1 - Z4590/B/203/1

>  <distance_score>  (327) 
0.82232

>  <HIPPO Compound ID>  (327) 
119152

>  <smiles>  (327) 
CCNCCN(CC)c1ncnc2ccccc12

>  <energy_score>  (327) 
-32.160851

$$$$
P65974
     RDKit          3D

 14 14  0  0  0  0  0  0  0  0999 V2000
   -7.8642    4.9923  -18.6982 C   0  0  0  0  0  0  0  0  0  0  0  0
   -7.9413    4.3567  -17.3230 C   0  0  0  0  0  0  0  0  0  0  0  0
   -6.9013    4.7254  -16.2171 C   0  0  0  0  0  0  0  0  0  0  0  0
   -7.0905    6.1431  -15.7290 C   0  0  0  0  0  0  0  0  0  0  0  0
   -5.3901    4.6428  -16.5772 C   0  0  0  0  0  0  0  0  0  0  0  0
   -4.9324    5.1047  -17.9530 C   0  0  0  0  0  0  0  0  0  0  0  0
   -7.2959    3.8751  -15.0811 N   0  0  0  0  0  0  0  0  0  0  0  0
   -6.4739    3.9568  -13.8779 C   0  0  0  0  0  0  0  0  0  0  0  0
   -7.2675    4.2019  -12.6127 C   0  0  0  0  0  0  0  0  0  0  0  0
   -7.9219    3.1349  -12.0066 C   0  0  0  0  0  0  0  0  0  0  0  0
   -8.5479    3.3373  -10.7856 C   0  0  0  0  0  0  0  0  0  0  0  0
   -8.5069    4.5972  -10.2069 C   0  0  0  0  0  0  0  0  0  0  0  0
   -7.8795    5.6188  -10.8982 C   0  0  0  0  0  0  0  0  0  0  0  0
   -7.2655    5.4560  -12.0890 N   0  0  0  0  0  0  0  0  0  0  0  0
  1  2  1  0
  2  3  1  0
  3  4  1  0
  3  5  1  0
  5  6  1  0
  3  7  1  0
  7  8  1  0
  8  9  1  0
  9 10  2  0
 10 11  1  0
 11 12  2  0
 12 13  1  0
 13 14  2  0
 14  9  1  0
M  END
>  <tags>  (328) 
openbind_xx01zvns2b_c1_knitwork_impure,BulkDock Fragalysis export,fragmenstein_placed,openbind_xx01zvns2b_c1_scaffolds

>  <placement_batch>  (328) 
openbind_xx01zvns2b_c1_knitwork_impure

>  <inspiration_score>  (328) 
None

>  <name>  (328) 
P65974

>  <HIPPO Pose ID>  (328) 
65974

>  <ref_pdb>  (328) 
Z1719a

>  <inchikey>  (328) 
BNKHEDZUOBHGMW-UHFFFAOYSA-N

>  <alias>  (328) 
None

>  <ref_mols>  (328) 
Z0472a,Z1719a

>  <subsites>  (328) 
1 - Z4590/B/203/1

>  <distance_score>  (328) 
0.990555

>  <HIPPO Compound ID>  (328) 
66126

>  <smiles>  (328) 
CCC(C)(CC)NCc1ccccn1

>  <energy_score>  (328) 
-15.404617

$$$$
P66046
     RDKit          3D

 15 17  0  0  0  0  0  0  0  0999 V2000
   -3.0038    5.1782  -15.7910 C   0  0  0  0  0  0  0  0  0  0  0  0
   -4.1353    5.7192  -16.2494 C   0  0  0  0  0  0  0  0  0  0  0  0
   -5.4964    5.2768  -15.9694 C   0  0  0  0  0  0  0  0  0  0  0  0
   -5.8329    5.3149  -14.6628 N   0  0  0  0  0  0  0  0  0  0  0  0
   -7.1027    5.0019  -14.3876 C   0  0  0  0  0  0  0  0  0  0  0  0
   -8.0565    4.7060  -15.2770 N   0  0  0  0  0  0  0  0  0  0  0  0
   -7.6869    4.6312  -16.5616 C   0  0  0  0  0  0  0  0  0  0  0  0
   -8.6332    4.2824  -17.5163 C   0  0  0  0  0  0  0  0  0  0  0  0
   -8.3101    4.1868  -18.8712 C   0  0  0  0  0  0  0  0  0  0  0  0
   -7.0082    4.4163  -19.2886 C   0  0  0  0  0  0  0  0  0  0  0  0
   -6.0460    4.7735  -18.3573 C   0  0  0  0  0  0  0  0  0  0  0  0
   -6.3815    4.9038  -16.9879 C   0  0  0  0  0  0  0  0  0  0  0  0
   -3.8447    6.9153  -17.0846 C   0  0  0  0  0  0  0  0  0  0  0  0
   -2.3858    6.8709  -17.3069 N   0  0  0  0  0  0  0  0  0  0  0  0
   -1.8432    5.9571  -16.2875 C   0  0  0  0  0  0  0  0  0  0  0  0
  1  2  2  0
  2  3  1  0
  3  4  2  0
  4  5  1  0
  5  6  2  0
  6  7  1  0
  7  8  2  0
  8  9  1  0
  9 10  2  0
 10 11  1  0
 11 12  2  0
  2 13  1  0
 13 14  1  0
 14 15  1  0
 15  1  1  0
 12  3  1  0
 12  7  1  0
M  END
>  <tags>  (329) 
openbind_xx01zvns2b_c1_knitwork_impure,BulkDock Fragalysis export,fragmenstein_placed,openbind_xx01zvns2b_c1_scaffolds

>  <placement_batch>  (329) 
openbind_xx01zvns2b_c1_knitwork_impure

>  <inspiration_score>  (329) 
None

>  <name>  (329) 
P66046

>  <HIPPO Pose ID>  (329) 
66046

>  <ref_pdb>  (329) 
Z1719a

>  <inchikey>  (329) 
VODDXHMDXWBNPF-UHFFFAOYSA-N

>  <alias>  (329) 
None

>  <ref_mols>  (329) 
Z0917a,Z0182a,Z0990a,Z1719a

>  <subsites>  (329) 
1 - Z4590/B/203/1

>  <distance_score>  (329) 
0.803507

>  <HIPPO Compound ID>  (329) 
119190

>  <smiles>  (329) 
C1=C(c2ncnc3ccccc23)CNC1

>  <energy_score>  (329) 
-24.278947

$$$$
P66047
     RDKit          3D

 16 18  0  0  0  0  0  0  0  0999 V2000
   -4.0923    6.9218  -17.0967 C   0  0  0  0  0  0  0  0  0  0  0  0
   -4.2690    5.8601  -16.2858 C   0  0  0  0  0  0  0  0  0  0  0  0
   -5.6168    5.3743  -15.9598 C   0  0  0  0  0  0  0  0  0  0  0  0
   -5.9314    5.4217  -14.6500 N   0  0  0  0  0  0  0  0  0  0  0  0
   -7.1863    5.0685  -14.3552 C   0  0  0  0  0  0  0  0  0  0  0  0
   -8.1369    4.7112  -15.2261 N   0  0  0  0  0  0  0  0  0  0  0  0
   -7.7829    4.6274  -16.5157 C   0  0  0  0  0  0  0  0  0  0  0  0
   -8.7248    4.2330  -17.4570 C   0  0  0  0  0  0  0  0  0  0  0  0
   -8.4111    4.1287  -18.8142 C   0  0  0  0  0  0  0  0  0  0  0  0
   -7.1238    4.3979  -19.2500 C   0  0  0  0  0  0  0  0  0  0  0  0
   -6.1699    4.8096  -18.3349 C   0  0  0  0  0  0  0  0  0  0  0  0
   -6.4965    4.9427  -16.9621 C   0  0  0  0  0  0  0  0  0  0  0  0
   -3.1040    5.1097  -15.7061 C   0  0  0  0  0  0  0  0  0  0  0  0
   -1.7836    5.8437  -15.9842 C   0  0  0  0  0  0  0  0  0  0  0  0
   -1.7135    6.3412  -17.3664 N   0  0  0  0  0  0  0  0  0  0  0  0
   -2.7415    7.3689  -17.5625 C   0  0  0  0  0  0  0  0  0  0  0  0
  1  2  2  0
  2  3  1  0
  3  4  2  0
  4  5  1  0
  5  6  2  0
  6  7  1  0
  7  8  2  0
  8  9  1  0
  9 10  2  0
 10 11  1  0
 11 12  2  0
  2 13  1  0
 13 14  1  0
 14 15  1  0
 15 16  1  0
 16  1  1  0
 12  3  1  0
 12  7  1  0
M  END
>  <tags>  (330) 
openbind_xx01zvns2b_c1_knitwork_impure,fragmenstein_placed,openbind_xx01zvns2b_c1_scaffolds_chemok_bbok,BulkDock Fragalysis export,openbind_xx01zvns2b_c1_scaffolds

>  <placement_batch>  (330) 
openbind_xx01zvns2b_c1_knitwork_impure

>  <inspiration_score>  (330) 
None

>  <name>  (330) 
P66047

>  <HIPPO Pose ID>  (330) 
66047

>  <ref_pdb>  (330) 
Z1719a

>  <inchikey>  (330) 
PNGHKLIWNHCPOR-UHFFFAOYSA-N

>  <alias>  (330) 
None

>  <ref_mols>  (330) 
Z0917a,Z0182a,Z0990a,Z1719a

>  <subsites>  (330) 
1 - Z4590/B/203/1

>  <distance_score>  (330) 
0.980043

>  <HIPPO Compound ID>  (330) 
119192

>  <smiles>  (330) 
C1=C(c2ncnc3ccccc23)CCNC1

>  <energy_score>  (330) 
-40.378309

$$$$
P66048
     RDKit          3D

 16 18  0  0  0  0  0  0  0  0999 V2000
   -3.2214    5.1509  -16.2985 C   0  0  0  0  0  0  0  0  0  0  0  0
   -4.2997    5.9445  -16.1761 C   0  0  0  0  0  0  0  0  0  0  0  0
   -5.6237    5.3900  -15.8720 C   0  0  0  0  0  0  0  0  0  0  0  0
   -5.9689    5.4101  -14.5702 N   0  0  0  0  0  0  0  0  0  0  0  0
   -7.2173    5.0065  -14.3141 C   0  0  0  0  0  0  0  0  0  0  0  0
   -8.1330    4.6345  -15.2165 N   0  0  0  0  0  0  0  0  0  0  0  0
   -7.7498    4.5956  -16.5002 C   0  0  0  0  0  0  0  0  0  0  0  0
   -8.6572    4.2027  -17.4756 C   0  0  0  0  0  0  0  0  0  0  0  0
   -8.3086    4.1517  -18.8278 C   0  0  0  0  0  0  0  0  0  0  0  0
   -7.0236    4.4890  -19.2256 C   0  0  0  0  0  0  0  0  0  0  0  0
   -6.1065    4.9103  -18.2769 C   0  0  0  0  0  0  0  0  0  0  0  0
   -6.4653    4.9649  -16.9074 C   0  0  0  0  0  0  0  0  0  0  0  0
   -4.2837    7.4219  -16.4712 C   0  0  0  0  0  0  0  0  0  0  0  0
   -2.9301    7.9818  -16.6273 N   0  0  0  0  0  0  0  0  0  0  0  0
   -2.1197    7.0960  -17.4691 C   0  0  0  0  0  0  0  0  0  0  0  0
   -1.9366    5.7098  -16.8331 C   0  0  0  0  0  0  0  0  0  0  0  0
  1  2  2  0
  2  3  1  0
  3  4  2  0
  4  5  1  0
  5  6  2  0
  6  7  1  0
  7  8  2  0
  8  9  1  0
  9 10  2  0
 10 11  1  0
 11 12  2  0
  2 13  1  0
 13 14  1  0
 14 15  1  0
 15 16  1  0
 16  1  1  0
 12  3  1  0
 12  7  1  0
M  END
>  <tags>  (331) 
openbind_xx01zvns2b_c1_knitwork_impure,BulkDock Fragalysis export,fragmenstein_placed,openbind_xx01zvns2b_c1_scaffolds

>  <placement_batch>  (331) 
openbind_xx01zvns2b_c1_knitwork_impure

>  <inspiration_score>  (331) 
None

>  <name>  (331) 
P66048

>  <HIPPO Pose ID>  (331) 
66048

>  <ref_pdb>  (331) 
Z1719a

>  <inchikey>  (331) 
LSLHYZDJOJSPLB-UHFFFAOYSA-N

>  <alias>  (331) 
None

>  <ref_mols>  (331) 
Z0917a,Z0182a,Z0990a,Z1719a

>  <subsites>  (331) 
1 - Z4590/B/203/1

>  <distance_score>  (331) 
0.803724

>  <HIPPO Compound ID>  (331) 
119194

>  <smiles>  (331) 
C1=C(c2ncnc3ccccc23)CNCC1

>  <energy_score>  (331) 
-39.22053

$$$$
P66051
     RDKit          3D

 23 25  0  0  0  0  0  0  0  0999 V2000
   -4.6377    7.0063  -18.4673 O   0  0  0  0  0  0  0  0  0  0  0  0
   -4.7519    5.7864  -18.6545 N   0  0  0  0  0  0  0  0  0  0  0  0
   -3.9312    5.0661  -19.2398 O   0  0  0  0  0  0  0  0  0  0  0  0
   -5.9797    5.1532  -18.2228 C   0  0  0  0  0  0  0  0  0  0  0  0
   -6.7967    4.6818  -19.2522 C   0  0  0  0  0  0  0  0  0  0  0  0
   -8.0517    4.1933  -18.9400 C   0  0  0  0  0  0  0  0  0  0  0  0
   -8.4559    4.1574  -17.6083 C   0  0  0  0  0  0  0  0  0  0  0  0
   -7.6306    4.5710  -16.5700 C   0  0  0  0  0  0  0  0  0  0  0  0
   -8.1351    4.4796  -15.3391 N   0  0  0  0  0  0  0  0  0  0  0  0
   -7.3540    4.8505  -14.3279 C   0  0  0  0  0  0  0  0  0  0  0  0
   -6.1224    5.3476  -14.4384 N   0  0  0  0  0  0  0  0  0  0  0  0
   -5.6315    5.4468  -15.6850 C   0  0  0  0  0  0  0  0  0  0  0  0
   -4.3603    6.0118  -15.6954 N   0  0  0  0  0  0  0  0  0  0  0  0
   -3.2543    5.0809  -15.9569 C   0  0  0  0  0  0  0  0  0  0  0  0
   -2.0588    5.8870  -16.4979 C   0  0  2  0  0  0  0  0  0  0  0  0
   -1.6572    5.2975  -17.6588 F   0  0  0  0  0  0  0  0  0  0  0  0
   -0.8658    5.9540  -15.5344 C   0  0  0  0  0  0  0  0  0  0  0  0
   -1.1804    6.7346  -14.2526 C   0  0  0  0  0  0  0  0  0  0  0  0
    0.0217    6.7457  -13.2990 C   0  0  0  0  0  0  0  0  0  0  0  0
    1.3196    6.6943  -13.9710 N   0  0  0  0  0  0  0  0  0  0  0  0
    1.2865    7.3306  -15.2805 C   0  0  0  0  0  0  0  0  0  0  0  0
    0.3649    6.5681  -16.2350 C   0  0  0  0  0  0  0  0  0  0  0  0
   -6.3490    5.0722  -16.8461 C   0  0  0  0  0  0  0  0  0  0  0  0
  1  2  2  0
  2  3  1  0
  2  4  1  0
  4  5  2  0
  5  6  1  0
  6  7  2  0
  7  8  1  0
  8  9  2  0
  9 10  1  0
 10 11  2  0
 11 12  1  0
 12 13  1  0
 13 14  1  0
 14 15  1  0
 15 16  1  6
 15 17  1  0
 17 18  1  0
 18 19  1  0
 19 20  1  0
 20 21  1  0
 21 22  1  0
 12 23  2  0
 23  4  1  0
 23  8  1  0
 22 17  1  0
M  CHG  2   2   1   3  -1
M  END
>  <tags>  (332) 
openbind_xx01zvns2b_c1_knitwork_impure,BulkDock Fragalysis export,fragmenstein_placed,openbind_xx01zvns2b_c1_scaffolds

>  <placement_batch>  (332) 
openbind_xx01zvns2b_c1_knitwork_impure

>  <inspiration_score>  (332) 
None

>  <name>  (332) 
P66051

>  <HIPPO Pose ID>  (332) 
66051

>  <ref_pdb>  (332) 
Z1719a

>  <inchikey>  (332) 
CYZAKMLMRKNWPQ-UHFFFAOYSA-N

>  <alias>  (332) 
None

>  <ref_mols>  (332) 
Z0917a,Z0182a,Z0990a,Z1719a

>  <subsites>  (332) 
1 - Z4590/B/203/1

>  <distance_score>  (332) 
0.678182

>  <HIPPO Compound ID>  (332) 
119198

>  <smiles>  (332) 
O=[N+]([O-])c1cccc2ncnc(NC[C@H](F)C3CCNCC3)c12

>  <energy_score>  (332) 
-65.327885

$$$$
P66052
     RDKit          3D

 21 23  0  0  0  0  0  0  0  0999 V2000
   -4.5853    7.6068  -15.6796 C   0  0  0  0  0  0  0  0  0  0  0  0
   -4.3160    6.2022  -16.0355 N   0  0  0  0  0  0  0  0  0  0  0  0
   -3.1792    5.6086  -15.3082 C   0  0  0  0  0  0  0  0  0  0  0  0
   -1.8856    5.6550  -16.1546 C   0  0  1  0  0  0  0  0  0  0  0  0
   -1.5616    6.9660  -16.8520 C   0  0  0  0  0  0  0  0  0  0  0  0
   -0.1117    6.7757  -17.2538 C   0  0  0  0  0  0  0  0  0  0  0  0
    0.4687    5.9058  -16.1503 C   0  0  0  0  0  0  0  0  0  0  0  0
   -0.6626    5.4232  -15.3429 N   0  0  0  0  0  0  0  0  0  0  0  0
   -5.5170    5.4838  -15.8115 C   0  0  0  0  0  0  0  0  0  0  0  0
   -5.9284    5.3330  -14.5374 N   0  0  0  0  0  0  0  0  0  0  0  0
   -7.1417    4.8036  -14.3689 C   0  0  0  0  0  0  0  0  0  0  0  0
   -7.9838    4.4535  -15.3413 N   0  0  0  0  0  0  0  0  0  0  0  0
   -7.5441    4.5567  -16.5973 C   0  0  0  0  0  0  0  0  0  0  0  0
   -8.4008    4.1529  -17.6148 C   0  0  0  0  0  0  0  0  0  0  0  0
   -8.0288    4.1905  -18.9588 C   0  0  0  0  0  0  0  0  0  0  0  0
   -6.7697    4.6510  -19.3060 C   0  0  0  0  0  0  0  0  0  0  0  0
   -5.9251    5.1085  -18.2980 C   0  0  0  0  0  0  0  0  0  0  0  0
   -4.6542    5.6477  -18.7296 N   0  0  0  0  0  0  0  0  0  0  0  0
   -3.7238    4.8458  -18.9022 O   0  0  0  0  0  0  0  0  0  0  0  0
   -4.6072    6.8667  -18.9610 O   0  0  0  0  0  0  0  0  0  0  0  0
   -6.2806    5.0648  -16.9230 C   0  0  0  0  0  0  0  0  0  0  0  0
  1  2  1  0
  2  3  1  0
  4  3  1  1
  4  5  1  0
  5  6  1  0
  6  7  1  0
  7  8  1  0
  2  9  1  0
  9 10  2  0
 10 11  1  0
 11 12  2  0
 12 13  1  0
 13 14  2  0
 14 15  1  0
 15 16  2  0
 16 17  1  0
 17 18  1  0
 18 19  2  0
 18 20  1  0
 17 21  2  0
  8  4  1  0
 21  9  1  0
 21 13  1  0
M  CHG  2  18   1  20  -1
M  END
>  <tags>  (333) 
openbind_xx01zvns2b_c1_knitwork_impure,fragmenstein_placed,openbind_xx01zvns2b_c1_scaffolds_chemok_bbok,BulkDock Fragalysis export,openbind_xx01zvns2b_c1_scaffolds

>  <placement_batch>  (333) 
openbind_xx01zvns2b_c1_knitwork_impure

>  <inspiration_score>  (333) 
None

>  <name>  (333) 
P66052

>  <HIPPO Pose ID>  (333) 
66052

>  <ref_pdb>  (333) 
Z1719a

>  <inchikey>  (333) 
LRDPNHMGMHCMQP-UHFFFAOYSA-N

>  <alias>  (333) 
None

>  <ref_mols>  (333) 
Z0917a,Z0182a,Z0990a,Z1719a

>  <subsites>  (333) 
1 - Z4590/B/203/1

>  <distance_score>  (333) 
0.890825

>  <HIPPO Compound ID>  (333) 
119199

>  <smiles>  (333) 
CN(C[C@H]1CCCN1)c1ncnc2cccc([N+](=O)[O-])c12

>  <energy_score>  (333) 
-60.836863

$$$$
P66054
     RDKit          3D

 21 24  0  0  0  0  0  0  0  0999 V2000
   -4.6167    6.8435  -18.7911 O   0  0  0  0  0  0  0  0  0  0  0  0
   -4.7025    5.6074  -18.7514 N   0  0  0  0  0  0  0  0  0  0  0  0
   -3.8042    4.8074  -19.0547 O   0  0  0  0  0  0  0  0  0  0  0  0
   -5.9618    5.0664  -18.3059 C   0  0  0  0  0  0  0  0  0  0  0  0
   -6.8050    4.5913  -19.3082 C   0  0  0  0  0  0  0  0  0  0  0  0
   -8.0735    4.1662  -18.9578 C   0  0  0  0  0  0  0  0  0  0  0  0
   -8.4572    4.1866  -17.6180 C   0  0  0  0  0  0  0  0  0  0  0  0
   -7.6048    4.6144  -16.6070 C   0  0  0  0  0  0  0  0  0  0  0  0
   -8.0758    4.5581  -15.3615 N   0  0  0  0  0  0  0  0  0  0  0  0
   -7.2443    4.9089  -14.3832 C   0  0  0  0  0  0  0  0  0  0  0  0
   -6.0065    5.3746  -14.5431 N   0  0  0  0  0  0  0  0  0  0  0  0
   -5.5648    5.5052  -15.8066 C   0  0  0  0  0  0  0  0  0  0  0  0
   -4.2918    6.0392  -15.9044 N   0  0  0  0  0  0  0  0  0  0  0  0
   -3.2009    5.1154  -15.6207 C   0  0  0  0  0  0  0  0  0  0  0  0
   -1.8581    5.8051  -15.9155 C   0  0  2  0  0  0  0  0  0  0  0  0
   -1.5286    6.9665  -14.9480 C   0  0  0  0  0  0  0  0  0  0  0  0
   -0.6375    7.8698  -15.7523 C   0  0  2  0  0  0  0  0  0  0  0  0
   -1.2085    8.8553  -16.7344 C   0  0  0  0  0  0  0  0  0  0  0  0
   -0.8144    7.4848  -17.1928 C   0  0  2  0  0  0  0  0  0  0  0  0
   -1.8169    6.4180  -17.2672 N   0  0  0  0  0  0  0  0  0  0  0  0
   -6.3217    5.0849  -16.9264 C   0  0  0  0  0  0  0  0  0  0  0  0
  1  2  2  0
  2  3  1  0
  2  4  1  0
  4  5  2  0
  5  6  1  0
  6  7  2  0
  7  8  1  0
  8  9  2  0
  9 10  1  0
 10 11  2  0
 11 12  1  0
 12 13  1  0
 13 14  1  0
 15 14  1  1
 15 16  1  0
 17 16  1  1
 17 18  1  0
 19 18  1  6
 19 20  1  0
 12 21  2  0
 21  4  1  0
 21  8  1  0
 20 15  1  0
 19 17  1  0
M  CHG  2   2   1   3  -1
M  END
>  <tags>  (334) 
openbind_xx01zvns2b_c1_knitwork_impure,BulkDock Fragalysis export,fragmenstein_placed,openbind_xx01zvns2b_c1_scaffolds

>  <placement_batch>  (334) 
openbind_xx01zvns2b_c1_knitwork_impure

>  <inspiration_score>  (334) 
None

>  <name>  (334) 
P66054

>  <HIPPO Pose ID>  (334) 
66054

>  <ref_pdb>  (334) 
Z1719a

>  <inchikey>  (334) 
DMWBKSMNWIVBKR-UHFFFAOYSA-N

>  <alias>  (334) 
None

>  <ref_mols>  (334) 
Z0917a,Z0182a,Z0990a,Z1719a

>  <subsites>  (334) 
1 - Z4590/B/203/1

>  <distance_score>  (334) 
0.988516

>  <HIPPO Compound ID>  (334) 
119200

>  <smiles>  (334) 
O=[N+]([O-])c1cccc2ncnc(NC[C@@H]3C[C@@H]4C[C@@H]4N3)c12

>  <energy_score>  (334) 
-105.921282

$$$$
P66055
     RDKit          3D

 22 24  0  0  0  0  0  0  0  0999 V2000
   -4.6443    6.8453  -18.7227 O   0  0  0  0  0  0  0  0  0  0  0  0
   -4.7815    5.6150  -18.8158 N   0  0  0  0  0  0  0  0  0  0  0  0
   -3.9435    4.8306  -19.2761 O   0  0  0  0  0  0  0  0  0  0  0  0
   -6.0223    5.0653  -18.3287 C   0  0  0  0  0  0  0  0  0  0  0  0
   -6.8894    4.5705  -19.2998 C   0  0  0  0  0  0  0  0  0  0  0  0
   -8.1444    4.1424  -18.9087 C   0  0  0  0  0  0  0  0  0  0  0  0
   -8.4871    4.1700  -17.5576 C   0  0  0  0  0  0  0  0  0  0  0  0
   -7.6053    4.6057  -16.5750 C   0  0  0  0  0  0  0  0  0  0  0  0
   -8.0304    4.5480  -15.3130 N   0  0  0  0  0  0  0  0  0  0  0  0
   -7.1638    4.9010  -14.3653 C   0  0  0  0  0  0  0  0  0  0  0  0
   -5.9362    5.3778  -14.5693 N   0  0  0  0  0  0  0  0  0  0  0  0
   -5.5446    5.5141  -15.8480 C   0  0  0  0  0  0  0  0  0  0  0  0
   -4.2950    6.0885  -16.0135 N   0  0  0  0  0  0  0  0  0  0  0  0
   -3.1480    5.2959  -15.6043 C   0  0  0  0  0  0  0  0  0  0  0  0
   -1.8581    6.1213  -15.8309 C   0  0  2  0  0  0  0  0  0  0  0  0
   -1.4668    6.1143  -17.3207 C   0  0  0  0  0  0  0  0  0  0  0  0
   -0.0365    6.5289  -17.6576 C   0  0  0  0  0  0  0  0  0  0  0  0
    0.4736    7.7646  -16.9153 C   0  0  0  0  0  0  0  0  0  0  0  0
    0.5443    7.6466  -15.3876 C   0  0  0  0  0  0  0  0  0  0  0  0
    0.5614    6.2652  -14.9269 N   0  0  0  0  0  0  0  0  0  0  0  0
   -0.7669    5.6486  -14.8461 C   0  0  0  0  0  0  0  0  0  0  0  0
   -6.3387    5.0860  -16.9388 C   0  0  0  0  0  0  0  0  0  0  0  0
  1  2  2  0
  2  3  1  0
  2  4  1  0
  4  5  2  0
  5  6  1  0
  6  7  2  0
  7  8  1  0
  8  9  2  0
  9 10  1  0
 10 11  2  0
 11 12  1  0
 12 13  1  0
 13 14  1  0
 15 14  1  6
 15 16  1  0
 16 17  1  0
 17 18  1  0
 18 19  1  0
 19 20  1  0
 20 21  1  0
 12 22  2  0
 22  4  1  0
 22  8  1  0
 21 15  1  0
M  CHG  2   2   1   3  -1
M  END
>  <tags>  (335) 
openbind_xx01zvns2b_c1_knitwork_impure,BulkDock Fragalysis export,fragmenstein_placed,openbind_xx01zvns2b_c1_scaffolds

>  <placement_batch>  (335) 
openbind_xx01zvns2b_c1_knitwork_impure

>  <inspiration_score>  (335) 
None

>  <name>  (335) 
P66055

>  <HIPPO Pose ID>  (335) 
66055

>  <ref_pdb>  (335) 
Z1719a

>  <inchikey>  (335) 
VYXYDYHXTRBHPO-UHFFFAOYSA-N

>  <alias>  (335) 
None

>  <ref_mols>  (335) 
Z0917a,Z0182a,Z0990a,Z1719a

>  <subsites>  (335) 
1 - Z4590/B/203/1

>  <distance_score>  (335) 
0.753986

>  <HIPPO Compound ID>  (335) 
119201

>  <smiles>  (335) 
O=[N+]([O-])c1cccc2ncnc(NC[C@@H]3CCCCNC3)c12

>  <energy_score>  (335) 
-66.681973

$$$$
P66065
     RDKit          3D

 17 19  0  0  0  0  0  0  0  0999 V2000
   -3.3115    4.6773  -15.5983 C   0  0  0  0  0  0  0  0  0  0  0  0
   -4.2354    5.7944  -15.6615 N   0  0  0  0  0  0  0  0  0  0  0  0
   -5.5738    5.3494  -15.6447 C   0  0  0  0  0  0  0  0  0  0  0  0
   -6.1188    5.1842  -14.4281 N   0  0  0  0  0  0  0  0  0  0  0  0
   -7.3961    4.7566  -14.3851 C   0  0  0  0  0  0  0  0  0  0  0  0
   -8.0350    4.4906  -13.0363 C   0  0  1  0  0  0  0  0  0  0  0  0
   -7.5838    3.1654  -12.4492 C   0  0  0  0  0  0  0  0  0  0  0  0
   -8.0677    3.2737  -11.0211 C   0  0  0  0  0  0  0  0  0  0  0  0
   -7.9078    4.7515  -10.6948 C   0  0  0  0  0  0  0  0  0  0  0  0
   -7.7214    5.4759  -11.9663 N   0  0  0  0  0  0  0  0  0  0  0  0
   -8.1497    4.4862  -15.4614 N   0  0  0  0  0  0  0  0  0  0  0  0
   -7.5809    4.6011  -16.6565 C   0  0  0  0  0  0  0  0  0  0  0  0
   -8.3400    4.2647  -17.7649 C   0  0  0  0  0  0  0  0  0  0  0  0
   -7.8156    4.3350  -19.0518 C   0  0  0  0  0  0  0  0  0  0  0  0
   -6.5082    4.7619  -19.2431 C   0  0  0  0  0  0  0  0  0  0  0  0
   -5.7336    5.1199  -18.1452 C   0  0  0  0  0  0  0  0  0  0  0  0
   -6.2621    5.0368  -16.8326 C   0  0  0  0  0  0  0  0  0  0  0  0
  1  2  1  0
  2  3  1  0
  3  4  2  0
  4  5  1  0
  6  5  1  6
  6  7  1  0
  7  8  1  0
  8  9  1  0
  9 10  1  0
  5 11  2  0
 11 12  1  0
 12 13  2  0
 13 14  1  0
 14 15  2  0
 15 16  1  0
 16 17  2  0
 17  3  1  0
 10  6  1  0
 17 12  1  0
M  END
>  <tags>  (336) 
openbind_xx01zvns2b_c1_knitwork_impure,BulkDock Fragalysis export,fragmenstein_placed,openbind_xx01zvns2b_c1_scaffolds

>  <placement_batch>  (336) 
openbind_xx01zvns2b_c1_knitwork_impure

>  <inspiration_score>  (336) 
None

>  <name>  (336) 
P66065

>  <HIPPO Pose ID>  (336) 
66065

>  <ref_pdb>  (336) 
Z1719a

>  <inchikey>  (336) 
GBKLQEOFQYIHPA-UHFFFAOYSA-N

>  <alias>  (336) 
None

>  <ref_mols>  (336) 
Z0917a,Z0182a,Z0990a,Z1719a

>  <subsites>  (336) 
1 - Z4590/B/203/1

>  <distance_score>  (336) 
0.774389

>  <HIPPO Compound ID>  (336) 
119216

>  <smiles>  (336) 
CNc1nc([C@H]2CCCN2)nc2ccccc12

>  <energy_score>  (336) 
-15.80815

$$$$
P66066
     RDKit          3D

 18 20  0  0  0  0  0  0  0  0999 V2000
   -3.0346    4.8000  -16.3066 C   0  0  0  0  0  0  0  0  0  0  0  0
   -3.9121    5.9382  -16.0626 N   0  0  0  0  0  0  0  0  0  0  0  0
   -5.2250    5.4827  -15.8284 C   0  0  0  0  0  0  0  0  0  0  0  0
   -5.5368    5.4161  -14.5318 N   0  0  0  0  0  0  0  0  0  0  0  0
   -6.7464    4.9283  -14.2226 C   0  0  0  0  0  0  0  0  0  0  0  0
   -7.0135    4.7477  -12.7534 C   0  0  0  0  0  0  0  0  0  0  0  0
   -7.4514    3.3240  -12.3858 C   0  0  0  0  0  0  0  0  0  0  0  0
   -8.4088    3.3075  -11.1983 C   0  0  0  0  0  0  0  0  0  0  0  0
   -8.0753    4.3112  -10.1895 N   0  0  0  0  0  0  0  0  0  0  0  0
   -8.0764    5.6795  -10.7039 C   0  0  0  0  0  0  0  0  0  0  0  0
   -7.9851    5.7944  -12.2249 C   0  0  0  0  0  0  0  0  0  0  0  0
   -7.6929    4.6018  -15.1176 N   0  0  0  0  0  0  0  0  0  0  0  0
   -7.3623    4.6693  -16.4152 C   0  0  0  0  0  0  0  0  0  0  0  0
   -8.2914    4.2907  -17.3779 C   0  0  0  0  0  0  0  0  0  0  0  0
   -7.9887    4.3142  -18.7421 C   0  0  0  0  0  0  0  0  0  0  0  0
   -6.7343    4.7358  -19.1633 C   0  0  0  0  0  0  0  0  0  0  0  0
   -5.8017    5.1554  -18.2253 C   0  0  0  0  0  0  0  0  0  0  0  0
   -6.1034    5.1056  -16.8465 C   0  0  0  0  0  0  0  0  0  0  0  0
  1  2  1  0
  2  3  1  0
  3  4  2  0
  4  5  1  0
  5  6  1  0
  6  7  1  0
  7  8  1  0
  8  9  1  0
  9 10  1  0
 10 11  1  0
  5 12  2  0
 12 13  1  0
 13 14  2  0
 14 15  1  0
 15 16  2  0
 16 17  1  0
 17 18  2  0
 18  3  1  0
 11  6  1  0
 18 13  1  0
M  END
>  <tags>  (337) 
openbind_xx01zvns2b_c1_knitwork_impure,fragmenstein_placed,openbind_xx01zvns2b_c1_scaffolds_chemok_bbok,BulkDock Fragalysis export,openbind_xx01zvns2b_c1_scaffolds

>  <placement_batch>  (337) 
openbind_xx01zvns2b_c1_knitwork_impure

>  <inspiration_score>  (337) 
None

>  <name>  (337) 
P66066

>  <HIPPO Pose ID>  (337) 
66066

>  <ref_pdb>  (337) 
Z1719a

>  <inchikey>  (337) 
ZKWKOMHHNVPVAX-UHFFFAOYSA-N

>  <alias>  (337) 
None

>  <ref_mols>  (337) 
Z0917a,Z0182a,Z0990a,Z1719a

>  <subsites>  (337) 
1 - Z4590/B/203/1

>  <distance_score>  (337) 
0.578659

>  <HIPPO Compound ID>  (337) 
119217

>  <smiles>  (337) 
CNc1nc(C2CCNCC2)nc2ccccc12

>  <energy_score>  (337) 
-32.419148

$$$$
P66068
     RDKit          3D

 17 19  0  0  0  0  0  0  0  0999 V2000
   -4.6459    7.8625  -15.1410 C   0  0  0  0  0  0  0  0  0  0  0  0
   -4.5705    6.6134  -15.9108 N   0  0  0  0  0  0  0  0  0  0  0  0
   -5.7653    5.8688  -15.6665 C   0  0  0  0  0  0  0  0  0  0  0  0
   -6.1664    5.6953  -14.3921 N   0  0  0  0  0  0  0  0  0  0  0  0
   -7.3221    5.0423  -14.2251 C   0  0  0  0  0  0  0  0  0  0  0  0
   -8.1154    4.5665  -15.1879 N   0  0  0  0  0  0  0  0  0  0  0  0
   -7.6822    4.6972  -16.4458 C   0  0  0  0  0  0  0  0  0  0  0  0
   -8.4472    4.1753  -17.4814 C   0  0  0  0  0  0  0  0  0  0  0  0
   -8.0281    4.2427  -18.8111 C   0  0  0  0  0  0  0  0  0  0  0  0
   -6.8249    4.8586  -19.1212 C   0  0  0  0  0  0  0  0  0  0  0  0
   -6.0781    5.4460  -18.1106 C   0  0  0  0  0  0  0  0  0  0  0  0
   -6.4866    5.3519  -16.7612 C   0  0  0  0  0  0  0  0  0  0  0  0
   -3.3692    5.7975  -15.6031 C   0  0  2  0  0  0  0  0  0  0  0  0
   -2.1258    6.4172  -16.2422 C   0  0  0  0  0  0  0  0  0  0  0  0
   -2.1291    5.9001  -17.6733 C   0  0  0  0  0  0  0  0  0  0  0  0
   -2.8912    4.6560  -17.6648 N   0  0  0  0  0  0  0  0  0  0  0  0
   -3.3319    4.4276  -16.2819 C   0  0  0  0  0  0  0  0  0  0  0  0
  1  2  1  0
  2  3  1  0
  3  4  2  0
  4  5  1  0
  5  6  2  0
  6  7  1  0
  7  8  2  0
  8  9  1  0
  9 10  2  0
 10 11  1  0
 11 12  2  0
 13  2  1  6
 13 14  1  0
 14 15  1  0
 15 16  1  0
 16 17  1  0
 12  3  1  0
 17 13  1  0
 12  7  1  0
M  END
>  <tags>  (338) 
openbind_xx01zvns2b_c1_knitwork_impure,BulkDock Fragalysis export,fragmenstein_placed,openbind_xx01zvns2b_c1_scaffolds

>  <placement_batch>  (338) 
openbind_xx01zvns2b_c1_knitwork_impure

>  <inspiration_score>  (338) 
None

>  <name>  (338) 
P66068

>  <HIPPO Pose ID>  (338) 
66068

>  <ref_pdb>  (338) 
Z1719a

>  <inchikey>  (338) 
DRWKIYBRLANYNE-UHFFFAOYSA-N

>  <alias>  (338) 
None

>  <ref_mols>  (338) 
Z0917a,Z0182a,Z0990a,Z1719a

>  <subsites>  (338) 
1 - Z4590/B/203/1

>  <distance_score>  (338) 
0.970475

>  <HIPPO Compound ID>  (338) 
119220

>  <smiles>  (338) 
CN(c1ncnc2ccccc12)[C@@H]1CCNC1

>  <energy_score>  (338) 
-27.758594

$$$$
P66069
     RDKit          3D

 20 23  0  0  0  0  0  0  0  0999 V2000
   -4.6037    5.2904  -18.8767 C   0  0  0  0  0  0  0  0  0  0  0  0
   -5.9609    4.9682  -18.3132 C   0  0  0  0  0  0  0  0  0  0  0  0
   -6.9286    4.5657  -19.2410 C   0  0  0  0  0  0  0  0  0  0  0  0
   -8.2057    4.2237  -18.8322 C   0  0  0  0  0  0  0  0  0  0  0  0
   -8.5155    4.2422  -17.4791 C   0  0  0  0  0  0  0  0  0  0  0  0
   -7.5865    4.6110  -16.5200 C   0  0  0  0  0  0  0  0  0  0  0  0
   -7.9984    4.5608  -15.2519 N   0  0  0  0  0  0  0  0  0  0  0  0
   -7.0995    4.8563  -14.3168 C   0  0  0  0  0  0  0  0  0  0  0  0
   -5.8568    5.2837  -14.5312 N   0  0  0  0  0  0  0  0  0  0  0  0
   -5.4824    5.4158  -15.8184 C   0  0  0  0  0  0  0  0  0  0  0  0
   -4.2539    6.0289  -15.9982 N   0  0  0  0  0  0  0  0  0  0  0  0
   -3.0921    5.3971  -15.4021 C   0  0  0  0  0  0  0  0  0  0  0  0
   -1.8584    6.2094  -15.8475 C   0  0  1  0  0  0  0  0  0  0  0  0
   -0.5529    5.7415  -15.2134 C   0  0  0  0  0  0  0  0  0  0  0  0
    0.4689    6.0984  -16.2552 C   0  0  0  0  0  0  0  0  0  0  0  0
    1.7406    5.2851  -16.3698 C   0  0  0  0  0  0  0  0  0  0  0  0
    1.8006    6.6894  -15.8469 C   0  0  0  0  0  0  0  0  0  0  0  0
   -0.2300    6.5981  -17.4927 C   0  0  0  0  0  0  0  0  0  0  0  0
   -1.6165    6.1370  -17.3157 N   0  0  0  0  0  0  0  0  0  0  0  0
   -6.2950    5.0169  -16.9118 C   0  0  0  0  0  0  0  0  0  0  0  0
  1  2  1  0
  2  3  2  0
  3  4  1  0
  4  5  2  0
  5  6  1  0
  6  7  2  0
  7  8  1  0
  8  9  2  0
  9 10  1  0
 10 11  1  0
 11 12  1  0
 13 12  1  6
 13 14  1  0
 14 15  1  0
 15 16  1  0
 16 17  1  0
 15 18  1  0
 18 19  1  0
 10 20  2  0
 20  2  1  0
 20  6  1  0
 19 13  1  0
 17 15  1  0
M  END
>  <tags>  (339) 
openbind_xx01zvns2b_c1_knitwork_impure,fragmenstein_placed,openbind_xx01zvns2b_c1_scaffolds_chemok_bbok,BulkDock Fragalysis export,openbind_xx01zvns2b_c1_scaffolds

>  <placement_batch>  (339) 
openbind_xx01zvns2b_c1_knitwork_impure

>  <inspiration_score>  (339) 
None

>  <name>  (339) 
P66069

>  <HIPPO Pose ID>  (339) 
66069

>  <ref_pdb>  (339) 
Z1719a

>  <inchikey>  (339) 
NITASWMWQADLET-UHFFFAOYSA-N

>  <alias>  (339) 
None

>  <ref_mols>  (339) 
Z0917a,Z0182a,Z0990a,Z1719a

>  <subsites>  (339) 
1 - Z4590/B/203/1

>  <distance_score>  (339) 
0.928145

>  <HIPPO Compound ID>  (339) 
119223

>  <smiles>  (339) 
Cc1cccc2ncnc(NC[C@H]3CC4(CC4)CN3)c12

>  <energy_score>  (339) 
-40.273682

$$$$
P66070
     RDKit          3D

 19 21  0  0  0  0  0  0  0  0999 V2000
   -4.6412    5.6547  -18.7929 C   0  0  0  0  0  0  0  0  0  0  0  0
   -5.9432    5.1095  -18.2776 C   0  0  0  0  0  0  0  0  0  0  0  0
   -6.8229    4.5904  -19.2348 C   0  0  0  0  0  0  0  0  0  0  0  0
   -8.0831    4.1474  -18.8704 C   0  0  0  0  0  0  0  0  0  0  0  0
   -8.4608    4.1839  -17.5346 C   0  0  0  0  0  0  0  0  0  0  0  0
   -7.6072    4.6443  -16.5462 C   0  0  0  0  0  0  0  0  0  0  0  0
   -8.0870    4.6392  -15.2990 N   0  0  0  0  0  0  0  0  0  0  0  0
   -7.2841    5.0866  -14.3381 C   0  0  0  0  0  0  0  0  0  0  0  0
   -6.0581    5.5802  -14.5077 N   0  0  0  0  0  0  0  0  0  0  0  0
   -5.5939    5.5779  -15.7713 C   0  0  0  0  0  0  0  0  0  0  0  0
   -4.3051    6.1345  -15.8636 N   0  0  0  0  0  0  0  0  0  0  0  0
   -3.2724    5.0881  -15.7148 C   0  0  0  0  0  0  0  0  0  0  0  0
   -1.8681    5.7455  -15.8223 C   0  0  2  0  0  0  0  0  0  0  0  0
   -1.5465    6.6214  -14.6003 C   0  0  0  0  0  0  0  0  0  0  0  0
   -0.1120    7.1499  -14.6625 C   0  0  0  0  0  0  0  0  0  0  0  0
    0.3707    7.3553  -16.0980 C   0  0  0  0  0  0  0  0  0  0  0  0
   -0.7958    7.6078  -17.0460 C   0  0  0  0  0  0  0  0  0  0  0  0
   -1.7424    6.4932  -17.0889 N   0  0  0  0  0  0  0  0  0  0  0  0
   -6.3243    5.1117  -16.8908 C   0  0  0  0  0  0  0  0  0  0  0  0
  1  2  1  0
  2  3  2  0
  3  4  1  0
  4  5  2  0
  5  6  1  0
  6  7  2  0
  7  8  1  0
  8  9  2  0
  9 10  1  0
 10 11  1  0
 11 12  1  0
 13 12  1  1
 13 14  1  0
 14 15  1  0
 15 16  1  0
 16 17  1  0
 17 18  1  0
 10 19  2  0
 19  2  1  0
 19  6  1  0
 18 13  1  0
M  END
>  <tags>  (340) 
openbind_xx01zvns2b_c1_knitwork_impure,BulkDock Fragalysis export,fragmenstein_placed,openbind_xx01zvns2b_c1_scaffolds

>  <placement_batch>  (340) 
openbind_xx01zvns2b_c1_knitwork_impure

>  <inspiration_score>  (340) 
None

>  <name>  (340) 
P66070

>  <HIPPO Pose ID>  (340) 
66070

>  <ref_pdb>  (340) 
Z1719a

>  <inchikey>  (340) 
MYGYZKIDIFLASZ-UHFFFAOYSA-N

>  <alias>  (340) 
None

>  <ref_mols>  (340) 
Z0917a,Z0182a,Z0990a,Z1719a

>  <subsites>  (340) 
1 - Z4590/B/203/1

>  <distance_score>  (340) 
0.774825

>  <HIPPO Compound ID>  (340) 
119224

>  <smiles>  (340) 
Cc1cccc2ncnc(NC[C@@H]3CCCCN3)c12

>  <energy_score>  (340) 
-44.773133

$$$$
P66179
     RDKit          3D

 23 25  0  0  0  0  0  0  0  0999 V2000
   -4.4356    4.6267  -21.5224 O   0  0  0  0  0  0  0  0  0  0  0  0
   -3.4222    4.9956  -21.0734 C   0  0  0  0  0  0  0  0  0  0  0  0
   -2.1340    5.1776  -21.8852 C   0  0  0  0  0  0  0  0  0  0  0  0
   -2.2337    4.5182  -23.2594 C   0  0  0  0  0  0  0  0  0  0  0  0
   -0.9698    4.6750  -24.1034 C   0  0  2  0  0  0  0  0  0  0  0  0
   -0.7321    6.0949  -24.6007 C   0  0  0  0  0  0  0  0  0  0  0  0
    0.0932    5.9160  -25.8673 C   0  0  0  0  0  0  0  0  0  0  0  0
    0.0043    4.4341  -26.2009 C   0  0  0  0  0  0  0  0  0  0  0  0
   -1.0623    3.8937  -25.3515 N   0  0  0  0  0  0  0  0  0  0  0  0
   -3.0638    5.4398  -19.6287 N   0  0  0  0  0  0  0  0  0  0  0  0
   -3.8113    5.4306  -18.4885 C   0  0  0  0  0  0  0  0  0  0  0  0
   -3.1551    5.7301  -17.3594 N   0  0  0  0  0  0  0  0  0  0  0  0
   -4.0949    5.6397  -16.4068 N   0  0  0  0  0  0  0  0  0  0  0  0
   -5.3274    5.3247  -16.8788 C   0  0  0  0  0  0  0  0  0  0  0  0
   -6.4252    5.1932  -16.1217 N   0  0  0  0  0  0  0  0  0  0  0  0
   -7.5245    4.8045  -16.8265 C   0  0  0  0  0  0  0  0  0  0  0  0
   -8.7868    4.5396  -16.0306 C   0  0  0  0  0  0  0  0  0  0  0  0
   -9.3843    5.6954  -15.6190 F   0  0  0  0  0  0  0  0  0  0  0  0
   -8.5446    3.8470  -14.8843 F   0  0  0  0  0  0  0  0  0  0  0  0
   -9.7171    3.8315  -16.7251 F   0  0  0  0  0  0  0  0  0  0  0  0
   -7.5379    4.6493  -18.2172 C   0  0  0  0  0  0  0  0  0  0  0  0
   -6.3590    4.8312  -18.9529 C   0  0  0  0  0  0  0  0  0  0  0  0
   -5.1926    5.1667  -18.2502 C   0  0  0  0  0  0  0  0  0  0  0  0
  1  2  2  0
  2  3  1  0
  3  4  1  0
  5  4  1  6
  5  6  1  0
  6  7  1  0
  7  8  1  0
  8  9  1  0
  2 10  1  0
 10 11  1  0
 11 12  2  0
 12 13  1  0
 13 14  1  0
 14 15  2  0
 15 16  1  0
 16 17  1  0
 17 18  1  0
 17 19  1  0
 17 20  1  0
 16 21  2  0
 21 22  1  0
 22 23  2  0
  9  5  1  0
 23 11  1  0
 23 14  1  0
M  END
>  <tags>  (341) 
openbind_xx01zvns2b_c1_knitwork_impure,fragmenstein_placed,openbind_xx01zvns2b_c1_scaffolds_chemok_bbok,BulkDock Fragalysis export,openbind_xx01zvns2b_c1_scaffolds

>  <placement_batch>  (341) 
openbind_xx01zvns2b_c1_knitwork_impure

>  <inspiration_score>  (341) 
None

>  <name>  (341) 
P66179

>  <HIPPO Pose ID>  (341) 
66179

>  <ref_pdb>  (341) 
Z0709a

>  <inchikey>  (341) 
MMOYNOVVZMWGSB-UHFFFAOYSA-N

>  <alias>  (341) 
None

>  <ref_mols>  (341) 
Z0827a,Z0709a

>  <subsites>  (341) 
1 - Z4590/B/203/1

>  <distance_score>  (341) 
0.89569

>  <HIPPO Compound ID>  (341) 
61750

>  <smiles>  (341) 
O=C(CC[C@@H]1CCCN1)Nc1n[nH]c2nc(C(F)(F)F)ccc12

>  <energy_score>  (341) 
-46.669165

$$$$
P66199
     RDKit          3D

 17 18  0  0  0  0  0  0  0  0999 V2000
   -3.0765    5.7551  -18.9074 C   0  0  0  0  0  0  0  0  0  0  0  0
   -2.8588    5.4757  -17.4899 C   0  0  0  0  0  0  0  0  0  0  0  0
   -2.7074    5.2634  -16.3174 C   0  0  0  0  0  0  0  0  0  0  0  0
   -2.5503    4.9940  -14.8816 C   0  0  0  0  0  0  0  0  0  0  0  0
   -3.2146    6.0704  -14.0075 C   0  0  0  0  0  0  0  0  0  0  0  0
   -4.3738    5.5939  -13.2447 N   0  0  0  0  0  0  0  0  0  0  0  0
   -5.6091    6.3118  -13.5397 C   0  0  0  0  0  0  0  0  0  0  0  0
   -6.4531    5.6353  -14.5913 C   0  0  0  0  0  0  0  0  0  0  0  0
   -7.6400    4.9937  -14.2369 C   0  0  0  0  0  0  0  0  0  0  0  0
   -8.4537    4.4399  -15.2216 C   0  0  0  0  0  0  0  0  0  0  0  0
   -8.0758    4.4828  -16.5699 C   0  0  0  0  0  0  0  0  0  0  0  0
   -8.8995    3.9834  -17.5844 C   0  0  0  0  0  0  0  0  0  0  0  0
   -8.4717    4.0432  -18.9011 C   0  0  0  0  0  0  0  0  0  0  0  0
   -7.2304    4.5903  -19.1574 C   0  0  0  0  0  0  0  0  0  0  0  0
   -6.4274    5.1203  -18.2110 N   0  0  0  0  0  0  0  0  0  0  0  0
   -6.8500    5.0661  -16.9386 C   0  0  0  0  0  0  0  0  0  0  0  0
   -6.0838    5.6537  -15.9438 C   0  0  0  0  0  0  0  0  0  0  0  0
  1  2  1  0
  2  3  3  0
  3  4  1  0
  4  5  1  0
  5  6  1  0
  6  7  1  0
  7  8  1  0
  8  9  2  0
  9 10  1  0
 10 11  2  0
 11 12  1  0
 12 13  2  0
 13 14  1  0
 14 15  2  0
 15 16  1  0
 16 17  2  0
 17  8  1  0
 16 11  1  0
M  END
>  <tags>  (342) 
openbind_xx01zvns2b_c1_knitwork_impure,BulkDock Fragalysis export,fragmenstein_placed,openbind_xx01zvns2b_c1_scaffolds

>  <placement_batch>  (342) 
openbind_xx01zvns2b_c1_knitwork_impure

>  <inspiration_score>  (342) 
None

>  <name>  (342) 
P66199

>  <HIPPO Pose ID>  (342) 
66199

>  <ref_pdb>  (342) 
Z3527a

>  <inchikey>  (342) 
XOHTWQXKVGQMAZ-UHFFFAOYSA-N

>  <alias>  (342) 
None

>  <ref_mols>  (342) 
Z3527a,Z0472a

>  <subsites>  (342) 
1 - Z4590/B/203/1

>  <distance_score>  (342) 
0.653866

>  <HIPPO Compound ID>  (342) 
107312

>  <smiles>  (342) 
CC#CCCNCc1ccc2cccnc2c1

>  <energy_score>  (342) 
-9.243754

$$$$
P66254
     RDKit          3D

 21 24  0  0  0  0  0  0  0  0999 V2000
   -3.5491    5.7444  -17.8977 O   0  0  0  0  0  0  0  0  0  0  0  0
   -4.7590    5.3290  -17.4593 C   0  0  0  0  0  0  0  0  0  0  0  0
   -5.0381    5.2006  -16.1210 C   0  0  0  0  0  0  0  0  0  0  0  0
   -6.3259    4.8041  -15.7527 C   0  0  0  0  0  0  0  0  0  0  0  0
   -6.6081    4.6116  -14.3959 N   0  0  0  0  0  0  0  0  0  0  0  0
   -7.4964    5.5598  -13.7156 C   0  0  0  0  0  0  0  0  0  0  0  0
   -7.8489    5.0840  -12.3360 C   0  0  0  0  0  0  0  0  0  0  0  0
   -8.2496    3.8009  -11.9759 C   0  0  0  0  0  0  0  0  0  0  0  0
   -8.2959    3.8194  -10.6202 N   0  0  0  0  0  0  0  0  0  0  0  0
   -8.5537    2.9267   -9.6120 C   0  0  0  0  0  0  0  0  0  0  0  0
   -8.3785    3.4796   -8.4017 C   0  0  0  0  0  0  0  0  0  0  0  0
   -7.8933    5.1828   -8.4914 S   0  0  0  0  0  0  0  0  0  0  0  0
   -7.9424    5.0735  -10.2259 C   0  0  0  0  0  0  0  0  0  0  0  0
   -7.6786    5.8880  -11.2153 N   0  0  0  0  0  0  0  0  0  0  0  0
   -7.2883    4.5963  -16.7660 C   0  0  0  0  0  0  0  0  0  0  0  0
   -8.6370    4.2405  -16.5300 C   0  0  0  0  0  0  0  0  0  0  0  0
   -9.5349    4.1320  -17.5802 C   0  0  0  0  0  0  0  0  0  0  0  0
   -9.0675    4.2466  -18.8743 C   0  0  0  0  0  0  0  0  0  0  0  0
   -7.7199    4.4661  -19.1148 C   0  0  0  0  0  0  0  0  0  0  0  0
   -6.8417    4.7205  -18.0977 C   0  0  0  0  0  0  0  0  0  0  0  0
   -5.6052    5.0843  -18.4523 N   0  0  0  0  0  0  0  0  0  0  0  0
  1  2  1  0
  2  3  2  0
  3  4  1  0
  4  5  1  0
  5  6  1  0
  6  7  1  0
  7  8  2  0
  8  9  1  0
  9 10  1  0
 10 11  2  0
 11 12  1  0
 12 13  1  0
 13 14  2  0
  4 15  2  0
 15 16  1  0
 16 17  2  0
 17 18  1  0
 18 19  2  0
 19 20  1  0
 20 21  2  0
 21  2  1  0
 14  7  1  0
 20 15  1  0
 13  9  1  0
M  END
>  <tags>  (343) 
openbind_xx01zvns2b_c1_knitwork_impure,BulkDock Fragalysis export,fragmenstein_placed,openbind_xx01zvns2b_c1_scaffolds

>  <placement_batch>  (343) 
openbind_xx01zvns2b_c1_knitwork_impure

>  <inspiration_score>  (343) 
None

>  <name>  (343) 
P66254

>  <HIPPO Pose ID>  (343) 
66254

>  <ref_pdb>  (343) 
Z0773a

>  <inchikey>  (343) 
VYGNZUMLJVOOBS-UHFFFAOYSA-N

>  <alias>  (343) 
None

>  <ref_mols>  (343) 
Z1495a,Z0773a

>  <subsites>  (343) 
1 - Z4590/B/203/1

>  <distance_score>  (343) 
0.914545

>  <HIPPO Compound ID>  (343) 
64538

>  <smiles>  (343) 
Oc1cc(NCc2cn3ccsc3n2)c2ccccc2n1

>  <energy_score>  (343) 
-35.239478

$$$$
P66264
     RDKit          3D

 20 22  0  0  0  0  0  0  0  0999 V2000
   -5.8082    5.0458  -13.8153 C   0  0  0  0  0  0  0  0  0  0  0  0
   -7.2647    5.1962  -14.2694 C   0  0  2  0  0  0  0  0  0  0  0  0
   -8.1522    4.4224  -13.3868 N   0  0  0  0  0  0  0  0  0  0  0  0
   -8.1535    4.6527  -12.0583 C   0  0  0  0  0  0  0  0  0  0  0  0
   -8.0505    3.7295  -11.1463 N   0  0  0  0  0  0  0  0  0  0  0  0
   -8.1300    4.5130   -9.8778 C   0  0  1  0  0  0  0  0  0  0  0  0
   -7.2685    3.9195   -8.7721 C   0  0  0  0  0  0  0  0  0  0  0  0
   -6.3133    4.9049   -8.0935 C   0  0  0  0  0  0  0  0  0  0  0  0
   -6.9113    6.1403   -7.4051 C   0  0  0  0  0  0  0  0  0  0  0  0
   -8.2478    6.6778   -7.9127 C   0  0  0  0  0  0  0  0  0  0  0  0
   -8.3186    7.0283   -9.4026 C   0  0  0  0  0  0  0  0  0  0  0  0
   -7.7435    5.9447  -10.2896 C   0  0  2  0  0  0  0  0  0  0  0  0
   -8.1815    5.9633  -11.6699 N   0  0  0  0  0  0  0  0  0  0  0  0
   -7.4448    4.8053  -15.7372 C   0  0  0  0  0  0  0  0  0  0  0  0
   -8.6749    4.3224  -16.1895 C   0  0  0  0  0  0  0  0  0  0  0  0
   -8.8319    3.9573  -17.5196 C   0  0  0  0  0  0  0  0  0  0  0  0
   -7.7562    4.0885  -18.3684 C   0  0  0  0  0  0  0  0  0  0  0  0
   -7.8579    3.6703  -19.6299 F   0  0  0  0  0  0  0  0  0  0  0  0
   -6.5835    4.6329  -17.8847 C   0  0  0  0  0  0  0  0  0  0  0  0
   -6.4091    5.0201  -16.5959 N   0  0  0  0  0  0  0  0  0  0  0  0
  2  1  1  1
  2  3  1  0
  3  4  1  0
  4  5  2  0
  5  6  1  0
  6  7  1  1
  7  8  1  0
  8  9  1  0
  9 10  1  0
 10 11  1  0
 12 11  1  1
 12 13  1  0
  2 14  1  0
 14 15  2  0
 15 16  1  0
 16 17  2  0
 17 18  1  0
 17 19  1  0
 19 20  2  0
 13  4  1  0
 20 14  1  0
 12  6  1  0
M  END
>  <tags>  (344) 
openbind_xx01zvns2b_c1_knitwork_impure,BulkDock Fragalysis export,fragmenstein_placed,openbind_xx01zvns2b_c1_scaffolds

>  <placement_batch>  (344) 
openbind_xx01zvns2b_c1_knitwork_impure

>  <inspiration_score>  (344) 
None

>  <name>  (344) 
P66264

>  <HIPPO Pose ID>  (344) 
66264

>  <ref_pdb>  (344) 
Z1274a

>  <inchikey>  (344) 
IVPFUPPUAGOWMK-UHFFFAOYSA-N

>  <alias>  (344) 
None

>  <ref_mols>  (344) 
Z0844a,Z1274a

>  <subsites>  (344) 
1 - Z4590/B/203/1

>  <distance_score>  (344) 
0.961232

>  <HIPPO Compound ID>  (344) 
60848

>  <smiles>  (344) 
C[C@H](NC1=N[C@H]2CCCCC[C@@H]2N1)c1ccc(F)cn1

>  <energy_score>  (344) 
-44.334817

$$$$
P66265
     RDKit          3D

 18 20  0  0  0  0  0  0  0  0999 V2000
   -7.8884    3.6533  -19.4268 C   0  0  0  0  0  0  0  0  0  0  0  0
   -7.7264    4.2339  -18.0732 C   0  0  0  0  0  0  0  0  0  0  0  0
   -8.7663    4.1276  -17.1637 C   0  0  0  0  0  0  0  0  0  0  0  0
   -8.5495    4.5067  -15.8543 C   0  0  0  0  0  0  0  0  0  0  0  0
   -7.2937    4.9767  -15.4768 C   0  0  0  0  0  0  0  0  0  0  0  0
   -7.0378    5.3003  -14.0154 C   0  0  2  0  0  0  0  0  0  0  0  0
   -5.5506    5.3251  -13.6659 C   0  0  0  0  0  0  0  0  0  0  0  0
   -7.7000    4.3370  -13.1636 N   0  0  0  0  0  0  0  0  0  0  0  0
   -7.9993    4.4805  -11.8672 C   0  0  0  0  0  0  0  0  0  0  0  0
   -8.2065    3.4713  -11.0806 N   0  0  0  0  0  0  0  0  0  0  0  0
   -8.4806    4.0841   -9.7567 C   0  0  1  0  0  0  0  0  0  0  0  0
   -7.4047    3.6738   -8.7680 C   0  0  0  0  0  0  0  0  0  0  0  0
   -6.3248    4.7320   -8.9283 C   0  0  0  0  0  0  0  0  0  0  0  0
   -7.1067    6.0208   -9.1130 C   0  0  0  0  0  0  0  0  0  0  0  0
   -8.3241    5.6155   -9.9373 C   0  0  1  0  0  0  0  0  0  0  0  0
   -8.0943    5.7341  -11.3592 N   0  0  0  0  0  0  0  0  0  0  0  0
   -6.2997    5.1895  -16.3761 N   0  0  0  0  0  0  0  0  0  0  0  0
   -6.5331    4.7891  -17.6424 C   0  0  0  0  0  0  0  0  0  0  0  0
  1  2  1  0
  2  3  2  0
  3  4  1  0
  4  5  2  0
  5  6  1  0
  6  7  1  6
  6  8  1  0
  8  9  1  0
  9 10  2  0
 10 11  1  0
 11 12  1  1
 12 13  1  0
 13 14  1  0
 15 14  1  1
 15 16  1  0
  5 17  1  0
 17 18  2  0
 18  2  1  0
 16  9  1  0
 15 11  1  0
M  END
>  <tags>  (345) 
openbind_xx01zvns2b_c1_knitwork_impure,BulkDock Fragalysis export,fragmenstein_placed,openbind_xx01zvns2b_c1_scaffolds

>  <placement_batch>  (345) 
openbind_xx01zvns2b_c1_knitwork_impure

>  <inspiration_score>  (345) 
None

>  <name>  (345) 
P66265

>  <HIPPO Pose ID>  (345) 
66265

>  <ref_pdb>  (345) 
Z1274a

>  <inchikey>  (345) 
DGGHJVRDXKKTJG-UHFFFAOYSA-N

>  <alias>  (345) 
None

>  <ref_mols>  (345) 
Z0844a,Z1274a

>  <subsites>  (345) 
1 - Z4590/B/203/1

>  <distance_score>  (345) 
0.975179

>  <HIPPO Compound ID>  (345) 
60849

>  <smiles>  (345) 
Cc1ccc([C@H](C)NC2=N[C@H]3CCC[C@H]3N2)nc1

>  <energy_score>  (345) 
-35.151001

$$$$
P66377
     RDKit          3D

 17 18  0  0  0  0  0  0  0  0999 V2000
   -5.8472    7.8858  -24.5772 C   0  0  0  0  0  0  0  0  0  0  0  0
   -5.4209    8.1008  -23.1333 C   0  0  0  0  0  0  0  0  0  0  0  0
   -4.9501    6.7938  -22.5066 C   0  0  0  0  0  0  0  0  0  0  0  0
   -4.7324    6.8967  -20.9970 C   0  0  0  0  0  0  0  0  0  0  0  0
   -4.2992    5.5517  -20.4253 C   0  0  0  0  0  0  0  0  0  0  0  0
   -4.4885    5.4626  -18.9246 C   0  0  0  0  0  0  0  0  0  0  0  0
   -3.6166    5.5961  -18.1564 O   0  0  0  0  0  0  0  0  0  0  0  0
   -5.9960    5.1490  -18.6951 N   0  0  0  0  0  0  0  0  0  0  0  0
   -6.6860    4.8552  -17.5311 C   0  0  0  0  0  0  0  0  0  0  0  0
   -6.0822    4.8121  -16.2744 C   0  0  0  0  0  0  0  0  0  0  0  0
   -6.8427    4.5542  -15.1287 C   0  0  0  0  0  0  0  0  0  0  0  0
   -8.2249    4.3586  -15.1913 C   0  0  0  0  0  0  0  0  0  0  0  0
   -8.7973    4.4241  -16.4553 C   0  0  0  0  0  0  0  0  0  0  0  0
  -10.0938    4.3812  -16.8818 N   0  0  0  0  0  0  0  0  0  0  0  0
  -10.1085    4.6028  -18.2222 C   0  0  0  0  0  0  0  0  0  0  0  0
   -8.8966    4.6490  -18.7134 N   0  0  0  0  0  0  0  0  0  0  0  0
   -8.0688    4.6303  -17.6183 C   0  0  0  0  0  0  0  0  0  0  0  0
  1  2  1  0
  2  3  1  0
  3  4  1  0
  4  5  1  0
  5  6  1  0
  6  7  2  0
  6  8  1  0
  8  9  1  0
  9 10  2  0
 10 11  1  0
 11 12  2  0
 12 13  1  0
 13 14  1  0
 14 15  1  0
 15 16  2  0
 16 17  1  0
 17  9  1  0
 17 13  2  0
M  END
>  <tags>  (346) 
openbind_xx01zvns2b_c1_knitwork_impure,fragmenstein_placed,openbind_xx01zvns2b_c1_scaffolds_chemok_bbok,BulkDock Fragalysis export,openbind_xx01zvns2b_c1_scaffolds

>  <placement_batch>  (346) 
openbind_xx01zvns2b_c1_knitwork_impure

>  <inspiration_score>  (346) 
None

>  <name>  (346) 
P66377

>  <HIPPO Pose ID>  (346) 
66377

>  <ref_pdb>  (346) 
Z0846a

>  <inchikey>  (346) 
XKJVMBDEKZNDDC-UHFFFAOYSA-N

>  <alias>  (346) 
None

>  <ref_mols>  (346) 
Z0846a,Z1597a

>  <subsites>  (346) 
1 - Z4590/B/203/1

>  <distance_score>  (346) 
0.965613

>  <HIPPO Compound ID>  (346) 
109063

>  <smiles>  (346) 
CCCCCC(=O)Nc1cccc2[nH]cnc12

>  <energy_score>  (346) 
-0.831519

$$$$
P66383
     RDKit          3D

 18 19  0  0  0  0  0  0  0  0999 V2000
   -5.5231   10.1234  -23.6111 C   0  0  0  0  0  0  0  0  0  0  0  0
   -4.9069    9.1587  -22.9142 C   0  0  0  0  0  0  0  0  0  0  0  0
   -5.1360    7.6931  -23.1474 C   0  0  0  0  0  0  0  0  0  0  0  0
   -5.3111    6.8647  -21.8679 C   0  0  0  0  0  0  0  0  0  0  0  0
   -4.0287    6.6597  -21.0527 C   0  0  0  0  0  0  0  0  0  0  0  0
   -4.0163    5.3286  -20.3001 C   0  0  0  0  0  0  0  0  0  0  0  0
   -4.3271    5.3925  -18.8139 C   0  0  0  0  0  0  0  0  0  0  0  0
   -3.4870    5.5300  -18.0105 O   0  0  0  0  0  0  0  0  0  0  0  0
   -5.8550    5.1431  -18.6435 N   0  0  0  0  0  0  0  0  0  0  0  0
   -6.6119    4.9263  -17.4977 C   0  0  0  0  0  0  0  0  0  0  0  0
   -6.0575    4.9509  -16.2158 C   0  0  0  0  0  0  0  0  0  0  0  0
   -6.8483    4.7129  -15.0858 C   0  0  0  0  0  0  0  0  0  0  0  0
   -8.2208    4.4783  -15.1853 C   0  0  0  0  0  0  0  0  0  0  0  0
   -8.7522    4.4942  -16.4680 C   0  0  0  0  0  0  0  0  0  0  0  0
  -10.0387    4.4236  -16.9251 N   0  0  0  0  0  0  0  0  0  0  0  0
  -10.0122    4.6008  -18.2725 C   0  0  0  0  0  0  0  0  0  0  0  0
   -8.7867    4.6251  -18.7329 N   0  0  0  0  0  0  0  0  0  0  0  0
   -7.9894    4.6705  -17.6172 C   0  0  0  0  0  0  0  0  0  0  0  0
  1  2  2  0
  2  3  1  0
  3  4  1  0
  4  5  1  0
  5  6  1  0
  6  7  1  0
  7  8  2  0
  7  9  1  0
  9 10  1  0
 10 11  2  0
 11 12  1  0
 12 13  2  0
 13 14  1  0
 14 15  1  0
 15 16  1  0
 16 17  2  0
 17 18  1  0
 18 10  1  0
 18 14  2  0
M  END
>  <tags>  (347) 
openbind_xx01zvns2b_c1_knitwork_impure,fragmenstein_placed,openbind_xx01zvns2b_c1_scaffolds_chemok_bbok,BulkDock Fragalysis export,openbind_xx01zvns2b_c1_scaffolds

>  <placement_batch>  (347) 
openbind_xx01zvns2b_c1_knitwork_impure

>  <inspiration_score>  (347) 
None

>  <name>  (347) 
P66383

>  <HIPPO Pose ID>  (347) 
66383

>  <ref_pdb>  (347) 
Z0846a

>  <inchikey>  (347) 
ZMGBSOTXAZULIK-UHFFFAOYSA-N

>  <alias>  (347) 
None

>  <ref_mols>  (347) 
Z0846a,Z1597a

>  <subsites>  (347) 
1 - Z4590/B/203/1

>  <distance_score>  (347) 
0.987042

>  <HIPPO Compound ID>  (347) 
109085

>  <smiles>  (347) 
C=CCCCCC(=O)Nc1cccc2[nH]cnc12

>  <energy_score>  (347) 
-13.897165

$$$$
P66439
     RDKit          3D

 14 15  0  0  0  0  0  0  0  0999 V2000
   -7.1989    6.2724  -13.4656 C   0  0  0  0  0  0  0  0  0  0  0  0
   -7.3765    4.7632  -13.4013 C   0  0  1  0  0  0  0  0  0  0  0  0
   -8.7505    4.4463  -13.0226 N   0  0  0  0  0  0  0  0  0  0  0  0
   -6.8884    4.0640  -14.6858 C   0  0  0  0  0  0  0  0  0  0  0  0
   -7.5281    4.3568  -16.0159 C   0  0  0  0  0  0  0  0  0  0  0  0
   -8.9079    4.1795  -16.2070 C   0  0  0  0  0  0  0  0  0  0  0  0
   -9.5014    4.2189  -17.4799 C   0  0  0  0  0  0  0  0  0  0  0  0
   -8.7264    4.4511  -18.6083 C   0  0  0  0  0  0  0  0  0  0  0  0
   -7.3743    4.6689  -18.4263 C   0  0  0  0  0  0  0  0  0  0  0  0
   -6.7903    4.6197  -17.1607 C   0  0  0  0  0  0  0  0  0  0  0  0
   -5.4148    4.7965  -17.2950 N   0  0  0  0  0  0  0  0  0  0  0  0
   -5.0446    4.9252  -18.6297 C   0  0  0  0  0  0  0  0  0  0  0  0
   -3.9018    5.0379  -19.0494 O   0  0  0  0  0  0  0  0  0  0  0  0
   -6.3198    4.9051  -19.4595 C   0  0  0  0  0  0  0  0  0  0  0  0
  2  1  1  6
  2  3  1  0
  2  4  1  0
  4  5  1  0
  5  6  2  0
  6  7  1  0
  7  8  2  0
  8  9  1  0
  9 10  2  0
 10 11  1  0
 11 12  1  0
 12 13  2  0
 12 14  1  0
 10  5  1  0
 14  9  1  0
M  END
>  <tags>  (348) 
openbind_xx01zvns2b_c1_knitwork_impure,BulkDock Fragalysis export,fragmenstein_placed,openbind_xx01zvns2b_c1_scaffolds

>  <placement_batch>  (348) 
openbind_xx01zvns2b_c1_knitwork_impure

>  <inspiration_score>  (348) 
None

>  <name>  (348) 
P66439

>  <HIPPO Pose ID>  (348) 
66439

>  <ref_pdb>  (348) 
Z0089a

>  <inchikey>  (348) 
MYRFHAYSTUWDNB-UHFFFAOYSA-N

>  <alias>  (348) 
None

>  <ref_mols>  (348) 
Z3596a,Z0089a

>  <subsites>  (348) 
1 - Z4590/B/203/1

>  <distance_score>  (348) 
0.587981

>  <HIPPO Compound ID>  (348) 
119693

>  <smiles>  (348) 
C[C@@H](N)Cc1cccc2c1NC(=O)C2

>  <energy_score>  (348) 
-18.646419

$$$$
P66653
     RDKit          3D

 21 23  0  0  0  0  0  0  0  0999 V2000
   -7.2566    4.3487  -11.8364 O   0  0  0  0  0  0  0  0  0  0  0  0
   -7.8241    5.2000  -11.2788 C   0  0  0  0  0  0  0  0  0  0  0  0
   -8.4776    6.4825  -11.8192 N   0  0  0  0  0  0  0  0  0  0  0  0
   -8.4901    7.0370  -13.1454 C   0  0  0  0  0  0  0  0  0  0  0  0
   -7.7143    6.2925  -14.2245 C   0  0  0  0  0  0  0  0  0  0  0  0
   -8.2714    4.9352  -14.6985 C   0  0  1  0  0  0  0  0  0  0  0  0
   -9.6333    4.7646  -14.3081 O   0  0  0  0  0  0  0  0  0  0  0  0
   -8.1944    4.7790  -16.2057 C   0  0  0  0  0  0  0  0  0  0  0  0
   -9.1863    4.5517  -17.1446 C   0  0  0  0  0  0  0  0  0  0  0  0
   -8.6850    4.5001  -18.4763 C   0  0  0  0  0  0  0  0  0  0  0  0
   -7.3225    4.6749  -18.5222 C   0  0  0  0  0  0  0  0  0  0  0  0
   -6.6538    4.8850  -16.9700 S   0  0  0  0  0  0  0  0  0  0  0  0
   -8.0780    5.1162   -9.8315 C   0  0  0  0  0  0  0  0  0  0  0  0
   -8.2783    6.2146   -9.0662 N   0  0  0  0  0  0  0  0  0  0  0  0
   -8.5325    5.7389   -7.7765 O   0  0  0  0  0  0  0  0  0  0  0  0
   -8.5102    4.3923   -7.8098 C   0  0  0  0  0  0  0  0  0  0  0  0
   -8.2152    3.9422   -9.0652 C   0  0  0  0  0  0  0  0  0  0  0  0
   -8.1960    2.5113   -9.4246 C   0  0  0  0  0  0  0  0  0  0  0  0
   -8.1392    1.7097   -8.1897 N   0  0  0  0  0  0  0  0  0  0  0  0
   -9.1106    2.1254   -7.1663 C   0  0  0  0  0  0  0  0  0  0  0  0
   -8.8169    3.5528   -6.6357 C   0  0  0  0  0  0  0  0  0  0  0  0
  1  2  2  0
  2  3  1  0
  3  4  1  0
  4  5  1  0
  5  6  1  0
  6  7  1  6
  6  8  1  0
  8  9  2  0
  9 10  1  0
 10 11  2  0
 11 12  1  0
  2 13  1  0
 13 14  2  0
 14 15  1  0
 15 16  1  0
 16 17  2  0
 17 18  1  0
 18 19  1  0
 19 20  1  0
 20 21  1  0
 12  8  1  0
 17 13  1  0
 21 16  1  0
M  END
>  <tags>  (349) 
openbind_xx01zvns2b_c1_knitwork_impure,fragmenstein_placed,openbind_xx01zvns2b_c1_scaffolds_chemok_bbok,BulkDock Fragalysis export,openbind_xx01zvns2b_c1_scaffolds

>  <placement_batch>  (349) 
openbind_xx01zvns2b_c1_knitwork_impure

>  <inspiration_score>  (349) 
None

>  <name>  (349) 
P66653

>  <HIPPO Pose ID>  (349) 
66653

>  <ref_pdb>  (349) 
Z0422a

>  <inchikey>  (349) 
WOFQUGUOWDLCQY-UHFFFAOYSA-N

>  <alias>  (349) 
None

>  <ref_mols>  (349) 
Z0422a,Z0969a

>  <subsites>  (349) 
1 - Z4590/B/203/1

>  <distance_score>  (349) 
0.744374

>  <HIPPO Compound ID>  (349) 
119910

>  <smiles>  (349) 
O=C(NCC[C@@H](O)c1cccs1)c1noc2c1CNCC2

>  <energy_score>  (349) 
-20.947403

$$$$
P67031
     RDKit          3D

 15 16  0  0  0  0  0  0  0  0999 V2000
   -1.9551    4.2328  -19.3412 C   0  0  0  0  0  0  0  0  0  0  0  0
   -2.4321    5.6663  -19.1311 C   0  0  1  0  0  0  0  0  0  0  0  0
   -1.5505    6.5860  -19.8561 N   0  0  0  0  0  0  0  0  0  0  0  0
   -3.8700    5.8638  -19.6198 C   0  0  0  0  0  0  0  0  0  0  0  0
   -4.9194    5.3941  -18.6530 C   0  0  0  0  0  0  0  0  0  0  0  0
   -6.0711    4.9822  -19.0558 N   0  0  0  0  0  0  0  0  0  0  0  0
   -7.0194    4.6980  -18.0800 C   0  0  0  0  0  0  0  0  0  0  0  0
   -8.3098    4.3234  -18.4579 C   0  0  0  0  0  0  0  0  0  0  0  0
   -9.2803    4.0729  -17.4895 C   0  0  0  0  0  0  0  0  0  0  0  0
   -8.9527    4.1821  -16.1388 C   0  0  0  0  0  0  0  0  0  0  0  0
   -7.6709    4.5570  -15.7500 C   0  0  0  0  0  0  0  0  0  0  0  0
   -6.7171    4.8233  -16.7301 C   0  0  0  0  0  0  0  0  0  0  0  0
   -5.3728    5.2827  -16.3630 C   0  0  0  0  0  0  0  0  0  0  0  0
   -5.0292    5.4498  -15.1987 O   0  0  0  0  0  0  0  0  0  0  0  0
   -4.5280    5.5508  -17.3747 O   0  0  0  0  0  0  0  0  0  0  0  0
  2  1  1  6
  2  3  1  0
  2  4  1  0
  4  5  1  0
  5  6  2  0
  6  7  1  0
  7  8  2  0
  8  9  1  0
  9 10  2  0
 10 11  1  0
 11 12  2  0
 12 13  1  0
 13 14  2  0
 13 15  1  0
 15  5  1  0
 12  7  1  0
M  END
>  <tags>  (350) 
openbind_xx01zvns2b_c1_knitwork_impure,fragmenstein_placed,openbind_xx01zvns2b_c1_scaffolds_chemok_bbok,BulkDock Fragalysis export,openbind_xx01zvns2b_c1_scaffolds

>  <placement_batch>  (350) 
openbind_xx01zvns2b_c1_knitwork_impure

>  <inspiration_score>  (350) 
None

>  <name>  (350) 
P67031

>  <HIPPO Pose ID>  (350) 
67031

>  <ref_pdb>  (350) 
Z0089a

>  <inchikey>  (350) 
RTRMZXCRHNJZQJ-UHFFFAOYSA-N

>  <alias>  (350) 
None

>  <ref_mols>  (350) 
Z0709a,Z0089a

>  <subsites>  (350) 
1 - Z4590/B/203/1

>  <distance_score>  (350) 
0.855255

>  <HIPPO Compound ID>  (350) 
68327

>  <smiles>  (350) 
C[C@@H](N)Cc1nc2ccccc2c(=O)o1

>  <energy_score>  (350) 
-24.347325

$$$$
P67034
     RDKit          3D

 14 15  0  0  0  0  0  0  0  0999 V2000
   -1.4681    4.5708  -19.8485 C   0  0  0  0  0  0  0  0  0  0  0  0
   -2.4971    5.4640  -19.1696 C   0  0  0  0  0  0  0  0  0  0  0  0
   -2.3320    6.9207  -19.5799 C   0  0  0  0  0  0  0  0  0  0  0  0
   -3.8181    4.9904  -19.5245 N   0  0  0  0  0  0  0  0  0  0  0  0
   -4.7967    5.0083  -18.5552 C   0  0  0  0  0  0  0  0  0  0  0  0
   -4.4524    5.1790  -17.2718 N   0  0  0  0  0  0  0  0  0  0  0  0
   -5.4275    5.0808  -16.3657 C   0  0  0  0  0  0  0  0  0  0  0  0
   -6.7333    4.8066  -16.6998 C   0  0  0  0  0  0  0  0  0  0  0  0
   -7.7268    4.6315  -15.7349 C   0  0  0  0  0  0  0  0  0  0  0  0
   -9.0075    4.2963  -16.1461 C   0  0  0  0  0  0  0  0  0  0  0  0
   -9.3086    4.1718  -17.4984 C   0  0  0  0  0  0  0  0  0  0  0  0
   -8.3047    4.3687  -18.4460 C   0  0  0  0  0  0  0  0  0  0  0  0
   -7.0035    4.6740  -18.0662 C   0  0  0  0  0  0  0  0  0  0  0  0
   -6.0431    4.8065  -18.9854 N   0  0  0  0  0  0  0  0  0  0  0  0
  1  2  1  0
  2  3  1  0
  2  4  1  0
  4  5  1  0
  5  6  2  0
  6  7  1  0
  7  8  2  0
  8  9  1  0
  9 10  2  0
 10 11  1  0
 11 12  2  0
 12 13  1  0
 13 14  2  0
 14  5  1  0
 13  8  1  0
M  END
>  <tags>  (351) 
openbind_xx01zvns2b_c1_knitwork_impure,BulkDock Fragalysis export,fragmenstein_placed,openbind_xx01zvns2b_c1_scaffolds

>  <placement_batch>  (351) 
openbind_xx01zvns2b_c1_knitwork_impure

>  <inspiration_score>  (351) 
None

>  <name>  (351) 
P67034

>  <HIPPO Pose ID>  (351) 
67034

>  <ref_pdb>  (351) 
Z0089a

>  <inchikey>  (351) 
GCZDPOJAVNTTPT-UHFFFAOYSA-N

>  <alias>  (351) 
None

>  <ref_mols>  (351) 
Z0709a,Z0089a

>  <subsites>  (351) 
1 - Z4590/B/203/1

>  <distance_score>  (351) 
0.829028

>  <HIPPO Compound ID>  (351) 
49005

>  <smiles>  (351) 
CC(C)Nc1ncc2ccccc2n1

>  <energy_score>  (351) 
-38.965552

$$$$
P67040
     RDKit          3D

 14 15  0  0  0  0  0  0  0  0999 V2000
   -2.0067    4.2182  -19.3467 C   0  0  0  0  0  0  0  0  0  0  0  0
   -2.4767    5.6585  -19.1633 C   0  0  1  0  0  0  0  0  0  0  0  0
   -1.6504    6.5256  -20.0180 N   0  0  0  0  0  0  0  0  0  0  0  0
   -3.9488    5.8418  -19.5516 C   0  0  0  0  0  0  0  0  0  0  0  0
   -4.9268    5.3100  -18.5477 C   0  0  0  0  0  0  0  0  0  0  0  0
   -4.5790    5.3621  -17.2491 N   0  0  0  0  0  0  0  0  0  0  0  0
   -5.5353    5.0374  -16.3698 C   0  0  0  0  0  0  0  0  0  0  0  0
   -6.8246    4.7007  -16.7356 C   0  0  0  0  0  0  0  0  0  0  0  0
   -7.8202    4.4072  -15.7983 C   0  0  0  0  0  0  0  0  0  0  0  0
   -9.0973    4.0976  -16.2422 C   0  0  0  0  0  0  0  0  0  0  0  0
   -9.3827    4.0655  -17.6015 C   0  0  0  0  0  0  0  0  0  0  0  0
   -8.3721    4.3432  -18.5207 C   0  0  0  0  0  0  0  0  0  0  0  0
   -7.0868    4.6730  -18.1084 C   0  0  0  0  0  0  0  0  0  0  0  0
   -6.1441    4.9745  -19.0057 N   0  0  0  0  0  0  0  0  0  0  0  0
  2  1  1  6
  2  3  1  0
  2  4  1  0
  4  5  1  0
  5  6  2  0
  6  7  1  0
  7  8  2  0
  8  9  1  0
  9 10  2  0
 10 11  1  0
 11 12  2  0
 12 13  1  0
 13 14  2  0
 14  5  1  0
 13  8  1  0
M  END
>  <tags>  (352) 
openbind_xx01zvns2b_c1_knitwork_impure,fragmenstein_placed,openbind_xx01zvns2b_c1_scaffolds_chemok_bbok,BulkDock Fragalysis export,openbind_xx01zvns2b_c1_scaffolds

>  <placement_batch>  (352) 
openbind_xx01zvns2b_c1_knitwork_impure

>  <inspiration_score>  (352) 
None

>  <name>  (352) 
P67040

>  <HIPPO Pose ID>  (352) 
67040

>  <ref_pdb>  (352) 
Z0089a

>  <inchikey>  (352) 
YRMZGAPAKDDOBZ-UHFFFAOYSA-N

>  <alias>  (352) 
None

>  <ref_mols>  (352) 
Z0709a,Z0089a

>  <subsites>  (352) 
1 - Z4590/B/203/1

>  <distance_score>  (352) 
0.918657

>  <HIPPO Compound ID>  (352) 
49006

>  <smiles>  (352) 
C[C@@H](N)Cc1ncc2ccccc2n1

>  <energy_score>  (352) 
-15.012192

$$$$
P67139
     RDKit          3D

 15 15  0  0  0  0  0  0  0  0999 V2000
   -8.4517    6.6934  -14.2846 O   0  0  0  0  0  0  0  0  0  0  0  0
   -8.4135    5.5301  -14.4240 C   0  0  0  0  0  0  0  0  0  0  0  0
   -8.3370    4.8764  -15.8026 C   0  0  0  0  0  0  0  0  0  0  0  0
   -6.5875    4.7020  -16.2552 S   0  0  0  0  0  0  0  0  0  0  0  0
   -6.7913    4.9085  -18.0157 C   0  0  0  0  0  0  0  0  0  0  0  0
   -7.7343    4.0698  -18.4996 F   0  0  0  0  0  0  0  0  0  0  0  0
   -5.6381    4.7129  -18.6840 F   0  0  0  0  0  0  0  0  0  0  0  0
   -7.1993    6.1681  -18.2679 F   0  0  0  0  0  0  0  0  0  0  0  0
   -8.3664    4.3843  -13.3619 N   0  0  0  0  0  0  0  0  0  0  0  0
   -8.2646    4.4420  -11.9725 C   0  0  0  0  0  0  0  0  0  0  0  0
   -8.1432    3.2580  -11.2521 C   0  0  0  0  0  0  0  0  0  0  0  0
   -8.0450    3.3338   -9.8713 C   0  0  0  0  0  0  0  0  0  0  0  0
   -8.0598    4.4976   -9.1830 N   0  0  0  0  0  0  0  0  0  0  0  0
   -8.1746    5.6269   -9.9127 C   0  0  0  0  0  0  0  0  0  0  0  0
   -8.2766    5.6531  -11.2937 C   0  0  0  0  0  0  0  0  0  0  0  0
  1  2  2  0
  2  3  1  0
  3  4  1  0
  4  5  1  0
  5  6  1  0
  5  7  1  0
  5  8  1  0
  2  9  1  0
  9 10  1  0
 10 11  2  0
 11 12  1  0
 12 13  2  0
 13 14  1  0
 14 15  2  0
 15 10  1  0
M  END
>  <tags>  (353) 
openbind_xx01zvns2b_c1_knitwork_impure,fragmenstein_placed,openbind_xx01zvns2b_c1_scaffolds_chemok_bbok,BulkDock Fragalysis export,openbind_xx01zvns2b_c1_scaffolds

>  <placement_batch>  (353) 
openbind_xx01zvns2b_c1_knitwork_impure

>  <inspiration_score>  (353) 
None

>  <name>  (353) 
P67139

>  <HIPPO Pose ID>  (353) 
67139

>  <ref_pdb>  (353) 
Z0465a

>  <inchikey>  (353) 
DZBJXIDRGQNHBA-UHFFFAOYSA-N

>  <alias>  (353) 
None

>  <ref_mols>  (353) 
Z1597a,Z0465a

>  <subsites>  (353) 
1 - Z4590/B/203/1

>  <distance_score>  (353) 
0.867126

>  <HIPPO Compound ID>  (353) 
120356

>  <smiles>  (353) 
O=C(CSC(F)(F)F)Nc1ccncc1

>  <energy_score>  (353) 
-1.223095

$$$$
P67141
     RDKit          3D

 15 15  0  0  0  0  0  0  0  0999 V2000
   -9.3818    3.5059  -17.6785 C   0  0  0  0  0  0  0  0  0  0  0  0
   -8.4417    4.3490  -18.5099 C   0  0  0  0  0  0  0  0  0  0  0  0
   -9.2601    5.4689  -19.1156 C   0  0  0  0  0  0  0  0  0  0  0  0
   -7.1804    4.8422  -17.7764 C   0  0  0  0  0  0  0  0  0  0  0  0
   -7.3516    5.6194  -16.4701 C   0  0  0  0  0  0  0  0  0  0  0  0
   -7.8413    4.7737  -15.3003 C   0  0  0  0  0  0  0  0  0  0  0  0
   -7.7316    5.4759  -13.9587 C   0  0  0  0  0  0  0  0  0  0  0  0
   -7.4063    6.5896  -13.8078 O   0  0  0  0  0  0  0  0  0  0  0  0
   -8.1537    4.3946  -12.9133 N   0  0  0  0  0  0  0  0  0  0  0  0
   -8.1668    4.4398  -11.5257 C   0  0  0  0  0  0  0  0  0  0  0  0
   -8.3459    3.2561  -10.8205 C   0  0  0  0  0  0  0  0  0  0  0  0
   -8.3297    3.3132   -9.4384 C   0  0  0  0  0  0  0  0  0  0  0  0
   -8.1778    4.4605   -8.7386 N   0  0  0  0  0  0  0  0  0  0  0  0
   -8.0163    5.5908   -9.4589 C   0  0  0  0  0  0  0  0  0  0  0  0
   -7.9963    5.6332  -10.8408 C   0  0  0  0  0  0  0  0  0  0  0  0
  1  2  1  0
  2  3  1  0
  2  4  1  0
  4  5  1  0
  5  6  1  0
  6  7  1  0
  7  8  2  0
  7  9  1  0
  9 10  1  0
 10 11  2  0
 11 12  1  0
 12 13  2  0
 13 14  1  0
 14 15  2  0
 15 10  1  0
M  END
>  <tags>  (354) 
openbind_xx01zvns2b_c1_knitwork_impure,fragmenstein_placed,openbind_xx01zvns2b_c1_scaffolds_chemok_bbok,BulkDock Fragalysis export,openbind_xx01zvns2b_c1_scaffolds

>  <placement_batch>  (354) 
openbind_xx01zvns2b_c1_knitwork_impure

>  <inspiration_score>  (354) 
None

>  <name>  (354) 
P67141

>  <HIPPO Pose ID>  (354) 
67141

>  <ref_pdb>  (354) 
Z0465a

>  <inchikey>  (354) 
VXQODEMWGODYSB-UHFFFAOYSA-N

>  <alias>  (354) 
None

>  <ref_mols>  (354) 
Z1597a,Z0465a

>  <subsites>  (354) 
1 - Z4590/B/203/1

>  <distance_score>  (354) 
0.953263

>  <HIPPO Compound ID>  (354) 
120359

>  <smiles>  (354) 
CC(C)CCCC(=O)Nc1ccncc1

>  <energy_score>  (354) 
-3.581629

$$$$
P67149
     RDKit          3D

 14 14  0  0  0  0  0  0  0  0999 V2000
   -9.4414    3.5612  -17.7413 C   0  0  0  0  0  0  0  0  0  0  0  0
   -8.6152    4.5120  -18.1901 C   0  0  0  0  0  0  0  0  0  0  0  0
   -9.1214    5.4048  -19.2542 C   0  0  0  0  0  0  0  0  0  0  0  0
   -7.2235    4.7591  -17.6631 C   0  0  0  0  0  0  0  0  0  0  0  0
   -7.2292    5.4765  -16.4150 O   0  0  0  0  0  0  0  0  0  0  0  0
   -7.9413    4.7554  -15.4085 C   0  0  0  0  0  0  0  0  0  0  0  0
   -7.6858    5.2387  -13.9871 C   0  0  0  0  0  0  0  0  0  0  0  0
   -8.5935    4.5045  -13.0934 N   0  0  0  0  0  0  0  0  0  0  0  0
   -8.3006    4.5371  -11.7241 C   0  0  0  0  0  0  0  0  0  0  0  0
   -8.3781    3.3640  -10.9710 C   0  0  0  0  0  0  0  0  0  0  0  0
   -8.1314    3.4173   -9.6079 C   0  0  0  0  0  0  0  0  0  0  0  0
   -7.8488    4.5593   -8.9443 N   0  0  0  0  0  0  0  0  0  0  0  0
   -7.8047    5.6839   -9.6865 C   0  0  0  0  0  0  0  0  0  0  0  0
   -8.0141    5.7235  -11.0561 C   0  0  0  0  0  0  0  0  0  0  0  0
  1  2  2  0
  2  3  1  0
  2  4  1  0
  4  5  1  0
  5  6  1  0
  6  7  1  0
  7  8  1  0
  8  9  1  0
  9 10  2  0
 10 11  1  0
 11 12  2  0
 12 13  1  0
 13 14  2  0
 14  9  1  0
M  END
>  <tags>  (355) 
openbind_xx01zvns2b_c1_knitwork_impure,BulkDock Fragalysis export,fragmenstein_placed,openbind_xx01zvns2b_c1_scaffolds

>  <placement_batch>  (355) 
openbind_xx01zvns2b_c1_knitwork_impure

>  <inspiration_score>  (355) 
None

>  <name>  (355) 
P67149

>  <HIPPO Pose ID>  (355) 
67149

>  <ref_pdb>  (355) 
Z0465a

>  <inchikey>  (355) 
MSQDCLBBXYNGNJ-UHFFFAOYSA-N

>  <alias>  (355) 
None

>  <ref_mols>  (355) 
Z1597a,Z0465a

>  <subsites>  (355) 
1 - Z4590/B/203/1

>  <distance_score>  (355) 
0.919574

>  <HIPPO Compound ID>  (355) 
120371

>  <smiles>  (355) 
C=C(C)COCCNc1ccncc1

>  <energy_score>  (355) 
-3.975871

$$$$
P67191
     RDKit          3D

 12 13  0  0  0  0  0  0  0  0999 V2000
  -10.6912    4.6612  -18.2722 O   0  0  0  0  0  0  0  0  0  0  0  0
   -9.5208    4.5040  -17.9306 C   0  0  0  0  0  0  0  0  0  0  0  0
   -8.3872    4.4563  -18.9156 C   0  0  0  0  0  0  0  0  0  0  0  0
   -7.1874    5.2347  -18.3837 C   0  0  0  0  0  0  0  0  0  0  0  0
   -6.8785    4.9937  -16.9590 N   0  0  0  0  0  0  0  0  0  0  0  0
   -8.0606    5.2410  -16.1255 C   0  0  2  0  0  0  0  0  0  0  0  0
   -7.7778    5.2012  -14.6614 C   0  0  0  0  0  0  0  0  0  0  0  0
   -7.4731    6.1644  -13.7254 C   0  0  0  0  0  0  0  0  0  0  0  0
   -7.5003    5.6266  -12.4609 N   0  0  0  0  0  0  0  0  0  0  0  0
   -7.7927    4.3622  -12.6759 C   0  0  0  0  0  0  0  0  0  0  0  0
   -7.9542    4.0250  -13.9836 O   0  0  0  0  0  0  0  0  0  0  0  0
   -9.1502    4.2587  -16.5030 C   0  0  0  0  0  0  0  0  0  0  0  0
  1  2  2  0
  2  3  1  0
  3  4  1  0
  4  5  1  0
  5  6  1  0
  6  7  1  1
  7  8  2  0
  8  9  1  0
  9 10  2  0
 10 11  1  0
  6 12  1  0
 12  2  1  0
 11  7  1  0
M  END
>  <tags>  (356) 
openbind_xx01zvns2b_c1_knitwork_impure,BulkDock Fragalysis export,fragmenstein_placed,openbind_xx01zvns2b_c1_scaffolds

>  <placement_batch>  (356) 
openbind_xx01zvns2b_c1_knitwork_impure

>  <inspiration_score>  (356) 
None

>  <name>  (356) 
P67191

>  <HIPPO Pose ID>  (356) 
67191

>  <ref_pdb>  (356) 
Z0465a

>  <inchikey>  (356) 
ULHUHMIJEUORHB-UHFFFAOYSA-N

>  <alias>  (356) 
None

>  <ref_mols>  (356) 
Z1098a,Z1342a,Z0465a,Z0673b

>  <subsites>  (356) 
1 - Z4590/B/203/1

>  <distance_score>  (356) 
0.746955

>  <HIPPO Compound ID>  (356) 
107274

>  <smiles>  (356) 
O=C1CCN[C@H](c2cnco2)C1

>  <energy_score>  (356) 
-26.027328

$$$$
P67192
     RDKit          3D

 12 13  0  0  0  0  0  0  0  0999 V2000
  -10.5636    3.9836  -18.1411 O   0  0  0  0  0  0  0  0  0  0  0  0
   -9.4811    4.4359  -17.7697 C   0  0  0  0  0  0  0  0  0  0  0  0
   -8.4427    4.9106  -18.7505 C   0  0  0  0  0  0  0  0  0  0  0  0
   -7.0399    4.9155  -18.1593 C   0  0  0  0  0  0  0  0  0  0  0  0
   -6.9784    5.4463  -16.7844 N   0  0  0  0  0  0  0  0  0  0  0  0
   -7.8178    4.6169  -15.9115 C   0  0  1  0  0  0  0  0  0  0  0  0
   -7.6743    5.0199  -14.4812 C   0  0  0  0  0  0  0  0  0  0  0  0
   -7.4710    6.2901  -13.8990 C   0  0  0  0  0  0  0  0  0  0  0  0
   -7.5376    6.2606  -12.5645 N   0  0  0  0  0  0  0  0  0  0  0  0
   -7.7518    4.9310  -12.2418 O   0  0  0  0  0  0  0  0  0  0  0  0
   -7.8230    4.2028  -13.3808 C   0  0  0  0  0  0  0  0  0  0  0  0
   -9.2748    4.7177  -16.3166 C   0  0  0  0  0  0  0  0  0  0  0  0
  1  2  2  0
  2  3  1  0
  3  4  1  0
  4  5  1  0
  5  6  1  0
  6  7  1  1
  7  8  1  0
  8  9  2  0
  9 10  1  0
 10 11  1  0
  6 12  1  0
 12  2  1  0
 11  7  2  0
M  END
>  <tags>  (357) 
openbind_xx01zvns2b_c1_knitwork_impure,BulkDock Fragalysis export,fragmenstein_placed,openbind_xx01zvns2b_c1_scaffolds

>  <placement_batch>  (357) 
openbind_xx01zvns2b_c1_knitwork_impure

>  <inspiration_score>  (357) 
None

>  <name>  (357) 
P67192

>  <HIPPO Pose ID>  (357) 
67192

>  <ref_pdb>  (357) 
Z0465a

>  <inchikey>  (357) 
XHSJYGGVMWCNOS-UHFFFAOYSA-N

>  <alias>  (357) 
None

>  <ref_mols>  (357) 
Z1098a,Z1342a,Z0465a,Z0673b

>  <subsites>  (357) 
1 - Z4590/B/203/1

>  <distance_score>  (357) 
0.930126

>  <HIPPO Compound ID>  (357) 
107279

>  <smiles>  (357) 
O=C1CCN[C@@H](c2cnoc2)C1

>  <energy_score>  (357) 
-26.67599

$$$$
P67195
     RDKit          3D

 12 13  0  0  0  0  0  0  0  0999 V2000
  -10.6765    4.6345  -18.2657 O   0  0  0  0  0  0  0  0  0  0  0  0
   -9.5063    4.4883  -17.9182 C   0  0  0  0  0  0  0  0  0  0  0  0
   -8.3642    4.4754  -18.8955 C   0  0  0  0  0  0  0  0  0  0  0  0
   -7.1929    5.2915  -18.3543 C   0  0  0  0  0  0  0  0  0  0  0  0
   -6.8881    5.0628  -16.9280 N   0  0  0  0  0  0  0  0  0  0  0  0
   -8.0896    5.2587  -16.1063 C   0  0  2  0  0  0  0  0  0  0  0  0
   -7.7799    5.2101  -14.6299 C   0  0  0  0  0  0  0  0  0  0  0  0
   -7.5978    6.3093  -13.8072 C   0  0  0  0  0  0  0  0  0  0  0  0
   -7.5599    5.8255  -12.1597 S   0  0  0  0  0  0  0  0  0  0  0  0
   -7.7207    4.1953  -12.6575 C   0  0  0  0  0  0  0  0  0  0  0  0
   -7.7870    3.9986  -13.9542 N   0  0  0  0  0  0  0  0  0  0  0  0
   -9.1381    4.2375  -16.4917 C   0  0  0  0  0  0  0  0  0  0  0  0
  1  2  2  0
  2  3  1  0
  3  4  1  0
  4  5  1  0
  5  6  1  0
  6  7  1  1
  7  8  2  0
  8  9  1  0
  9 10  1  0
 10 11  2  0
  6 12  1  0
 12  2  1  0
 11  7  1  0
M  END
>  <tags>  (358) 
openbind_xx01zvns2b_c1_knitwork_impure,BulkDock Fragalysis export,fragmenstein_placed,openbind_xx01zvns2b_c1_scaffolds

>  <placement_batch>  (358) 
openbind_xx01zvns2b_c1_knitwork_impure

>  <inspiration_score>  (358) 
None

>  <name>  (358) 
P67195

>  <HIPPO Pose ID>  (358) 
67195

>  <ref_pdb>  (358) 
Z0465a

>  <inchikey>  (358) 
YBNXWYMUEQZBNG-UHFFFAOYSA-N

>  <alias>  (358) 
None

>  <ref_mols>  (358) 
Z1098a,Z1342a,Z0465a

>  <subsites>  (358) 
1 - Z4590/B/203/1

>  <distance_score>  (358) 
0.76289

>  <HIPPO Compound ID>  (358) 
54554

>  <smiles>  (358) 
O=C1CCN[C@H](c2cscn2)C1

>  <energy_score>  (358) 
-64.240824

$$$$
P67197
     RDKit          3D

 12 13  0  0  0  0  0  0  0  0999 V2000
  -10.5946    3.9897  -18.1225 O   0  0  0  0  0  0  0  0  0  0  0  0
   -9.5148    4.4669  -17.7735 C   0  0  0  0  0  0  0  0  0  0  0  0
   -8.5102    4.9630  -18.7761 C   0  0  0  0  0  0  0  0  0  0  0  0
   -7.0914    4.9566  -18.2291 C   0  0  0  0  0  0  0  0  0  0  0  0
   -6.9870    5.4562  -16.8446 N   0  0  0  0  0  0  0  0  0  0  0  0
   -7.8047    4.6133  -15.9601 C   0  0  1  0  0  0  0  0  0  0  0  0
   -7.6475    4.9893  -14.5138 C   0  0  0  0  0  0  0  0  0  0  0  0
   -7.7011    6.2259  -13.8995 C   0  0  0  0  0  0  0  0  0  0  0  0
   -7.7124    6.2146  -12.5145 N   0  0  0  0  0  0  0  0  0  0  0  0
   -7.6379    4.9702  -12.0954 C   0  0  0  0  0  0  0  0  0  0  0  0
   -7.5005    3.7729  -13.3079 S   0  0  0  0  0  0  0  0  0  0  0  0
   -9.2713    4.7409  -16.3256 C   0  0  0  0  0  0  0  0  0  0  0  0
  1  2  2  0
  2  3  1  0
  3  4  1  0
  4  5  1  0
  5  6  1  0
  6  7  1  1
  7  8  2  0
  8  9  1  0
  9 10  2  0
 10 11  1  0
  6 12  1  0
 12  2  1  0
 11  7  1  0
M  END
>  <tags>  (359) 
openbind_xx01zvns2b_c1_knitwork_impure,BulkDock Fragalysis export,fragmenstein_placed,openbind_xx01zvns2b_c1_scaffolds

>  <placement_batch>  (359) 
openbind_xx01zvns2b_c1_knitwork_impure

>  <inspiration_score>  (359) 
None

>  <name>  (359) 
P67197

>  <HIPPO Pose ID>  (359) 
67197

>  <ref_pdb>  (359) 
Z0465a

>  <inchikey>  (359) 
GXMCWDUCTUMFBA-UHFFFAOYSA-N

>  <alias>  (359) 
None

>  <ref_mols>  (359) 
Z1098a,Z1342a,Z0465a,Z0673b

>  <subsites>  (359) 
1 - Z4590/B/203/1

>  <distance_score>  (359) 
0.796697

>  <HIPPO Compound ID>  (359) 
107286

>  <smiles>  (359) 
O=C1CCN[C@@H](c2cncs2)C1

>  <energy_score>  (359) 
-90.948291

$$$$
P67198
     RDKit          3D

 12 13  0  0  0  0  0  0  0  0999 V2000
  -10.6847    4.6336  -18.2591 O   0  0  0  0  0  0  0  0  0  0  0  0
   -9.5137    4.4878  -17.9141 C   0  0  0  0  0  0  0  0  0  0  0  0
   -8.3736    4.4804  -18.8935 C   0  0  0  0  0  0  0  0  0  0  0  0
   -7.2051    5.2989  -18.3510 C   0  0  0  0  0  0  0  0  0  0  0  0
   -6.8970    5.0623  -16.9273 N   0  0  0  0  0  0  0  0  0  0  0  0
   -8.0947    5.2505  -16.0979 C   0  0  2  0  0  0  0  0  0  0  0  0
   -7.7810    5.1800  -14.6340 C   0  0  0  0  0  0  0  0  0  0  0  0
   -7.6624    6.2201  -13.7371 C   0  0  0  0  0  0  0  0  0  0  0  0
   -7.5797    5.7006  -12.4788 O   0  0  0  0  0  0  0  0  0  0  0  0
   -7.6263    4.3548  -12.6832 C   0  0  0  0  0  0  0  0  0  0  0  0
   -7.7157    3.9912  -13.9408 N   0  0  0  0  0  0  0  0  0  0  0  0
   -9.1426    4.2312  -16.4893 C   0  0  0  0  0  0  0  0  0  0  0  0
  1  2  2  0
  2  3  1  0
  3  4  1  0
  4  5  1  0
  5  6  1  0
  6  7  1  1
  7  8  2  0
  8  9  1  0
  9 10  1  0
 10 11  2  0
  6 12  1  0
 12  2  1  0
 11  7  1  0
M  END
>  <tags>  (360) 
openbind_xx01zvns2b_c1_knitwork_impure,BulkDock Fragalysis export,fragmenstein_placed,openbind_xx01zvns2b_c1_scaffolds

>  <placement_batch>  (360) 
openbind_xx01zvns2b_c1_knitwork_impure

>  <inspiration_score>  (360) 
None

>  <name>  (360) 
P67198

>  <HIPPO Pose ID>  (360) 
67198

>  <ref_pdb>  (360) 
Z0465a

>  <inchikey>  (360) 
QFKFMGJMIZTFDN-UHFFFAOYSA-N

>  <alias>  (360) 
None

>  <ref_mols>  (360) 
Z1098a,Z1342a,Z0465a,Z0673b

>  <subsites>  (360) 
1 - Z4590/B/203/1

>  <distance_score>  (360) 
0.775765

>  <HIPPO Compound ID>  (360) 
107290

>  <smiles>  (360) 
O=C1CCN[C@H](c2cocn2)C1

>  <energy_score>  (360) 
-23.196713

$$$$
P67201
     RDKit          3D

 12 13  0  0  0  0  0  0  0  0999 V2000
  -10.6527    4.2400  -18.2228 O   0  0  0  0  0  0  0  0  0  0  0  0
   -9.5483    4.6433  -17.8548 C   0  0  0  0  0  0  0  0  0  0  0  0
   -8.5202    5.1150  -18.8463 C   0  0  0  0  0  0  0  0  0  0  0  0
   -7.1004    5.0024  -18.3164 C   0  0  0  0  0  0  0  0  0  0  0  0
   -6.9608    5.4763  -16.9276 N   0  0  0  0  0  0  0  0  0  0  0  0
   -7.8175    4.6461  -16.0582 C   0  0  1  0  0  0  0  0  0  0  0  0
   -7.6167    4.9665  -14.5972 C   0  0  0  0  0  0  0  0  0  0  0  0
   -7.6925    6.2158  -13.9322 C   0  0  0  0  0  0  0  0  0  0  0  0
   -7.6916    5.9078  -12.5904 C   0  0  0  0  0  0  0  0  0  0  0  0
   -7.5969    4.5484  -12.5185 N   0  0  0  0  0  0  0  0  0  0  0  0
   -7.4676    3.9673  -13.7178 N   0  0  0  0  0  0  0  0  0  0  0  0
   -9.2814    4.8415  -16.3989 C   0  0  0  0  0  0  0  0  0  0  0  0
  1  2  2  0
  2  3  1  0
  3  4  1  0
  4  5  1  0
  5  6  1  0
  6  7  1  1
  7  8  1  0
  8  9  2  0
  9 10  1  0
 10 11  1  0
  6 12  1  0
 12  2  1  0
 11  7  2  0
M  END
>  <tags>  (361) 
openbind_xx01zvns2b_c1_knitwork_impure,BulkDock Fragalysis export,fragmenstein_placed,openbind_xx01zvns2b_c1_scaffolds

>  <placement_batch>  (361) 
openbind_xx01zvns2b_c1_knitwork_impure

>  <inspiration_score>  (361) 
None

>  <name>  (361) 
P67201

>  <HIPPO Pose ID>  (361) 
67201

>  <ref_pdb>  (361) 
Z0465a

>  <inchikey>  (361) 
QMMJHLCPTPBXJT-UHFFFAOYSA-N

>  <alias>  (361) 
None

>  <ref_mols>  (361) 
Z1098a,Z1342a,Z0465a

>  <subsites>  (361) 
1 - Z4590/B/203/1

>  <distance_score>  (361) 
0.924252

>  <HIPPO Compound ID>  (361) 
120385

>  <smiles>  (361) 
O=C1CCN[C@@H](c2cc[nH]n2)C1

>  <energy_score>  (361) 
-13.440288

$$$$
P67211
     RDKit          3D

 14 15  0  0  0  0  0  0  0  0999 V2000
   -7.9802    5.8332  -14.9582 O   0  0  0  0  0  0  0  0  0  0  0  0
   -8.1512    5.1662  -15.9830 C   0  0  0  0  0  0  0  0  0  0  0  0
   -9.5308    4.7847  -16.4397 C   0  0  0  0  0  0  0  0  0  0  0  0
   -9.5591    4.2357  -17.8566 C   0  0  0  0  0  0  0  0  0  0  0  0
   -8.6416    4.9859  -18.6879 N   0  0  0  0  0  0  0  0  0  0  0  0
   -7.2427    4.8061  -18.2978 C   0  0  0  0  0  0  0  0  0  0  0  0
   -7.0081    4.5828  -16.7862 C   0  0  1  0  0  0  0  0  0  0  0  0
   -5.7358    4.9065  -16.2503 O   0  0  0  0  0  0  0  0  0  0  0  0
   -5.1912    6.1487  -16.6369 C   0  0  0  0  0  0  0  0  0  0  0  0
   -4.0999    5.7584  -17.5527 C   0  0  0  0  0  0  0  0  0  0  0  0
   -3.9467    5.8286  -18.9198 C   0  0  0  0  0  0  0  0  0  0  0  0
   -2.7170    5.1991  -19.1685 C   0  0  0  0  0  0  0  0  0  0  0  0
   -2.1243    4.7697  -18.0543 N   0  0  0  0  0  0  0  0  0  0  0  0
   -3.0050    5.0830  -17.0894 N   0  0  0  0  0  0  0  0  0  0  0  0
  1  2  2  0
  2  3  1  0
  3  4  1  0
  4  5  1  0
  5  6  1  0
  6  7  1  0
  7  8  1  1
  8  9  1  0
  9 10  1  0
 10 11  2  0
 11 12  1  0
 12 13  2  0
 13 14  1  0
  7  2  1  0
 14 10  1  0
M  END
>  <tags>  (362) 
openbind_xx01zvns2b_c1_knitwork_impure,BulkDock Fragalysis export,fragmenstein_placed,openbind_xx01zvns2b_c1_scaffolds

>  <placement_batch>  (362) 
openbind_xx01zvns2b_c1_knitwork_impure

>  <inspiration_score>  (362) 
None

>  <name>  (362) 
P67211

>  <HIPPO Pose ID>  (362) 
67211

>  <ref_pdb>  (362) 
Z0465a

>  <inchikey>  (362) 
QCNRXBDZXBKQJE-UHFFFAOYSA-N

>  <alias>  (362) 
None

>  <ref_mols>  (362) 
Z1098a,Z1342a,Z0465a

>  <subsites>  (362) 
1 - Z4590/B/203/1

>  <distance_score>  (362) 
0.908127

>  <HIPPO Compound ID>  (362) 
120410

>  <smiles>  (362) 
O=C1CCNC[C@H]1OCc1ccn[nH]1

>  <energy_score>  (362) 
-22.155375

$$$$
P67263
     RDKit          3D

 21 23  0  0  0  0  0  0  0  0999 V2000
   -5.5083    4.9879  -19.5234 C   0  0  0  0  0  0  0  0  0  0  0  0
   -5.6077    4.9994  -18.0885 N   0  0  0  0  0  0  0  0  0  0  0  0
   -4.5484    5.2816  -17.2257 C   0  0  0  0  0  0  0  0  0  0  0  0
   -3.3892    5.5173  -17.5351 O   0  0  0  0  0  0  0  0  0  0  0  0
   -5.1053    5.2621  -15.7996 C   0  0  0  0  0  0  0  0  0  0  0  0
   -6.5402    4.8806  -16.0126 C   0  0  0  0  0  0  0  0  0  0  0  0
   -7.5458    4.6409  -15.0871 C   0  0  0  0  0  0  0  0  0  0  0  0
   -7.2943    4.8260  -13.6384 C   0  0  0  0  0  0  0  0  0  0  0  0
   -6.5036    5.6444  -13.1992 O   0  0  0  0  0  0  0  0  0  0  0  0
   -8.0714    3.9784  -12.9234 O   0  0  0  0  0  0  0  0  0  0  0  0
   -7.9769    4.1149  -11.4906 C   0  0  0  0  0  0  0  0  0  0  0  0
   -8.5163    2.8456  -10.8367 C   0  0  0  0  0  0  0  0  0  0  0  0
   -8.7365    2.9566   -9.3622 C   0  0  0  0  0  0  0  0  0  0  0  0
   -9.2185    1.9467   -8.5488 C   0  0  0  0  0  0  0  0  0  0  0  0
   -9.3734    2.4927   -6.9359 S   0  0  0  0  0  0  0  0  0  0  0  0
   -8.7201    3.9987   -7.4177 C   0  0  0  0  0  0  0  0  0  0  0  0
   -8.4615    4.1466   -8.6987 N   0  0  0  0  0  0  0  0  0  0  0  0
   -8.8082    4.2649  -15.5719 C   0  0  0  0  0  0  0  0  0  0  0  0
   -9.0449    4.1380  -16.9518 C   0  0  0  0  0  0  0  0  0  0  0  0
   -8.0252    4.3829  -17.8721 C   0  0  0  0  0  0  0  0  0  0  0  0
   -6.7844    4.7447  -17.3807 C   0  0  0  0  0  0  0  0  0  0  0  0
  1  2  1  0
  2  3  1  0
  3  4  2  0
  3  5  1  0
  5  6  1  0
  6  7  2  0
  7  8  1  0
  8  9  2  0
  8 10  1  0
 10 11  1  0
 11 12  1  0
 12 13  1  0
 13 14  2  0
 14 15  1  0
 15 16  1  0
 16 17  2  0
  7 18  1  0
 18 19  2  0
 19 20  1  0
 20 21  2  0
 21  2  1  0
 21  6  1  0
 17 13  1  0
M  END
>  <tags>  (363) 
openbind_xx01zvns2b_c1_knitwork_impure,fragmenstein_placed,openbind_xx01zvns2b_c1_scaffolds_chemok_bbok,BulkDock Fragalysis export,openbind_xx01zvns2b_c1_scaffolds

>  <placement_batch>  (363) 
openbind_xx01zvns2b_c1_knitwork_impure

>  <inspiration_score>  (363) 
None

>  <name>  (363) 
P67263

>  <HIPPO Pose ID>  (363) 
67263

>  <ref_pdb>  (363) 
Z3596a

>  <inchikey>  (363) 
LXLDMGQVCLMMEC-UHFFFAOYSA-N

>  <alias>  (363) 
None

>  <ref_mols>  (363) 
Z3596a,Z0852a

>  <subsites>  (363) 
1 - Z4590/B/203/1

>  <distance_score>  (363) 
0.558215

>  <HIPPO Compound ID>  (363) 
3146

>  <smiles>  (363) 
CN1C(=O)Cc2c(C(=O)OCCc3cscn3)cccc21

>  <energy_score>  (363) 
-44.066334

$$$$
P67334
     RDKit          3D

 12 13  0  0  0  0  0  0  0  0999 V2000
   -6.6890    4.8522  -16.7570 C   0  0  0  0  0  0  0  0  0  0  0  0
   -5.5231    5.3616  -16.1990 C   0  0  0  0  0  0  0  0  0  0  0  0
   -4.4866    5.7862  -17.0323 C   0  0  0  0  0  0  0  0  0  0  0  0
   -4.6388    5.6808  -18.4134 C   0  0  0  0  0  0  0  0  0  0  0  0
   -3.5785    6.1296  -19.4183 C   0  0  2  0  0  0  0  0  0  0  0  0
   -2.9460    4.8816  -20.0954 C   0  0  0  0  0  0  0  0  0  0  0  0
   -1.9178    5.1575  -21.1364 N   0  0  0  0  0  0  0  0  0  0  0  0
   -0.9450    6.1385  -20.6201 C   0  0  0  0  0  0  0  0  0  0  0  0
   -1.5948    7.3737  -19.9596 C   0  0  0  0  0  0  0  0  0  0  0  0
   -2.5134    7.0172  -18.8613 N   0  0  0  0  0  0  0  0  0  0  0  0
   -5.7679    5.1638  -18.9550 N   0  0  0  0  0  0  0  0  0  0  0  0
   -6.7671    4.7775  -18.1336 C   0  0  0  0  0  0  0  0  0  0  0  0
  1  2  2  0
  2  3  1  0
  3  4  2  0
  5  4  1  1
  5  6  1  0
  6  7  1  0
  7  8  1  0
  8  9  1  0
  9 10  1  0
  4 11  1  0
 11 12  2  0
 12  1  1  0
 10  5  1  0
M  END
>  <tags>  (364) 
openbind_xx01zvns2b_c1_knitwork_impure,BulkDock Fragalysis export,fragmenstein_placed,openbind_xx01zvns2b_c1_scaffolds

>  <placement_batch>  (364) 
openbind_xx01zvns2b_c1_knitwork_impure

>  <inspiration_score>  (364) 
None

>  <name>  (364) 
P67334

>  <HIPPO Pose ID>  (364) 
67334

>  <ref_pdb>  (364) 
Z0990a

>  <inchikey>  (364) 
UGHMAQBZWONQLH-UHFFFAOYSA-N

>  <alias>  (364) 
None

>  <ref_mols>  (364) 
Z1342a,Z0990a

>  <subsites>  (364) 
1 - Z4590/B/203/1

>  <distance_score>  (364) 
0.757802

>  <HIPPO Compound ID>  (364) 
5440

>  <smiles>  (364) 
c1ccc([C@@H]2CNCCN2)nc1

>  <energy_score>  (364) 
-30.562102

$$$$
P67414
     RDKit          3D

 13 13  0  0  0  0  0  0  0  0999 V2000
   -6.4059    2.6256   -9.5725 C   0  0  0  0  0  0  0  0  0  0  0  0
   -6.2891    2.7532  -11.0442 C   0  0  0  0  0  0  0  0  0  0  0  0
   -7.3418    2.6589  -11.8675 C   0  0  0  0  0  0  0  0  0  0  0  0
   -7.2691    2.6354  -13.3573 C   0  0  2  0  0  0  0  0  0  0  0  0
   -5.9059    2.5279  -13.7758 O   0  0  0  0  0  0  0  0  0  0  0  0
   -7.9329    3.8490  -13.9970 C   0  0  0  0  0  0  0  0  0  0  0  0
   -8.1777    3.5310  -15.3694 O   0  0  0  0  0  0  0  0  0  0  0  0
   -8.3729    4.6726  -16.1935 C   0  0  2  0  0  0  0  0  0  0  0  0
   -9.2261    4.2196  -17.3880 C   0  0  0  0  0  0  0  0  0  0  0  0
   -8.5518    4.1769  -18.7573 C   0  0  0  0  0  0  0  0  0  0  0  0
   -7.1700    4.8110  -18.8585 C   0  0  0  0  0  0  0  0  0  0  0  0
   -6.3520    4.5933  -17.6712 N   0  0  0  0  0  0  0  0  0  0  0  0
   -6.9989    5.2640  -16.5508 C   0  0  0  0  0  0  0  0  0  0  0  0
  1  2  1  0
  2  3  2  3
  3  4  1  0
  4  5  1  1
  4  6  1  0
  6  7  1  0
  8  7  1  1
  8  9  1  0
  9 10  1  0
 10 11  1  0
 11 12  1  0
 12 13  1  0
 13  8  1  0
M  END
>  <tags>  (365) 
openbind_xx01zvns2b_c1_knitwork_impure,BulkDock Fragalysis export,fragmenstein_placed,openbind_xx01zvns2b_c1_scaffolds

>  <placement_batch>  (365) 
openbind_xx01zvns2b_c1_knitwork_impure

>  <inspiration_score>  (365) 
None

>  <name>  (365) 
P67414

>  <HIPPO Pose ID>  (365) 
67414

>  <ref_pdb>  (365) 
Z1729a

>  <inchikey>  (365) 
VVBDNRMYDOKXAP-UHFFFAOYSA-N

>  <alias>  (365) 
None

>  <ref_mols>  (365) 
Z1729a,Z0884a

>  <subsites>  (365) 
1 - Z4590/B/203/1

>  <distance_score>  (365) 
0.780431

>  <HIPPO Compound ID>  (365) 
65201

>  <smiles>  (365) 
CC=C[C@H](O)CO[C@@H]1CCCNC1

>  <energy_score>  (365) 
-23.191951

$$$$
P67513
     RDKit          3D

 15 17  0  0  0  0  0  0  0  0999 V2000
   -8.8797    4.2326  -15.5389 C   0  0  0  0  0  0  0  0  0  0  0  0
   -9.3304    4.0925  -16.8552 C   0  0  0  0  0  0  0  0  0  0  0  0
   -8.4863    4.3170  -17.9412 C   0  0  0  0  0  0  0  0  0  0  0  0
   -7.1977    4.7397  -17.6321 C   0  0  0  0  0  0  0  0  0  0  0  0
   -6.1443    5.0802  -18.4317 N   0  0  0  0  0  0  0  0  0  0  0  0
   -5.1257    5.5376  -17.6252 C   0  0  0  0  0  0  0  0  0  0  0  0
   -3.8725    6.1736  -18.1439 C   0  0  1  0  0  0  0  0  0  0  0  0
   -3.3386    5.5352  -19.4520 C   0  0  0  0  0  0  0  0  0  0  0  0
   -3.2743    6.3980  -20.6543 N   0  0  0  0  0  0  0  0  0  0  0  0
   -4.5983    6.9966  -20.9138 C   0  0  0  0  0  0  0  0  0  0  0  0
   -5.1418    7.9460  -19.8316 C   0  0  0  0  0  0  0  0  0  0  0  0
   -4.1328    7.9922  -18.3185 S   0  0  0  0  0  0  0  0  0  0  0  0
   -5.4409    5.3971  -16.3505 N   0  0  0  0  0  0  0  0  0  0  0  0
   -6.7275    4.9208  -16.3399 C   0  0  0  0  0  0  0  0  0  0  0  0
   -7.5728    4.6439  -15.2610 C   0  0  0  0  0  0  0  0  0  0  0  0
  1  2  2  0
  2  3  1  0
  3  4  2  0
  4  5  1  0
  5  6  1  0
  7  6  1  6
  7  8  1  0
  8  9  1  0
  9 10  1  0
 10 11  1  0
 11 12  1  0
  6 13  2  0
 13 14  1  0
 14 15  2  0
 15  1  1  0
 14  4  1  0
 12  7  1  0
M  END
>  <tags>  (366) 
openbind_xx01zvns2b_c1_knitwork_impure,BulkDock Fragalysis export,fragmenstein_placed,openbind_xx01zvns2b_c1_scaffolds

>  <placement_batch>  (366) 
openbind_xx01zvns2b_c1_knitwork_impure

>  <inspiration_score>  (366) 
None

>  <name>  (366) 
P67513

>  <HIPPO Pose ID>  (366) 
67513

>  <ref_pdb>  (366) 
Z3476a

>  <inchikey>  (366) 
HTQIISKWOQQLMV-UHFFFAOYSA-N

>  <alias>  (366) 
None

>  <ref_mols>  (366) 
Z3476a,Z0990a

>  <subsites>  (366) 
1 - Z4590/B/203/1

>  <distance_score>  (366) 
0.874445

>  <HIPPO Compound ID>  (366) 
58501

>  <smiles>  (366) 
c1ccc2[nH]c([C@H]3CNCCS3)nc2c1

>  <energy_score>  (366) 
-19.482171

$$$$
P67587
     RDKit          3D

 11 12  0  0  0  0  0  0  0  0999 V2000
   -9.7883    3.8581  -17.6834 O   0  0  0  0  0  0  0  0  0  0  0  0
   -8.8034    4.3084  -17.1294 C   0  0  0  0  0  0  0  0  0  0  0  0
   -7.5963    4.7640  -17.8290 C   0  0  0  0  0  0  0  0  0  0  0  0
   -6.6521    4.8506  -16.8802 C   0  0  0  0  0  0  0  0  0  0  0  0
   -5.2965    5.0984  -17.2724 C   0  0  0  0  0  0  0  0  0  0  0  0
   -4.8773    5.3912  -18.4942 N   0  0  0  0  0  0  0  0  0  0  0  0
   -3.5037    5.4522  -18.5530 C   0  0  0  0  0  0  0  0  0  0  0  0
   -2.8552    5.2470  -17.3597 C   0  0  0  0  0  0  0  0  0  0  0  0
   -4.0017    4.9595  -16.1215 S   0  0  0  0  0  0  0  0  0  0  0  0
   -7.1630    4.5810  -15.6087 N   0  0  0  0  0  0  0  0  0  0  0  0
   -8.5511    4.3890  -15.7639 N   0  0  0  0  0  0  0  0  0  0  0  0
  1  2  2  0
  2  3  1  0
  3  4  2  0
  4  5  1  0
  5  6  2  0
  6  7  1  0
  7  8  2  0
  8  9  1  0
  4 10  1  0
 10 11  1  0
 11  2  1  0
  9  5  1  0
M  END
>  <tags>  (367) 
openbind_xx01zvns2b_c1_knitwork_impure,fragmenstein_placed,openbind_xx01zvns2b_c1_scaffolds_chemok_bbok,BulkDock Fragalysis export,openbind_xx01zvns2b_c1_scaffolds

>  <placement_batch>  (367) 
openbind_xx01zvns2b_c1_knitwork_impure

>  <inspiration_score>  (367) 
None

>  <name>  (367) 
P67587

>  <HIPPO Pose ID>  (367) 
67587

>  <ref_pdb>  (367) 
Z0693a

>  <inchikey>  (367) 
DFYPNMWDFSAPNK-UHFFFAOYSA-N

>  <alias>  (367) 
None

>  <ref_mols>  (367) 
Z0693a,Z0465a

>  <subsites>  (367) 
1 - Z4590/B/203/1

>  <distance_score>  (367) 
0.949633

>  <HIPPO Compound ID>  (367) 
8189

>  <smiles>  (367) 
O=c1cc(-c2nccs2)[nH][nH]1

>  <energy_score>  (367) 
-66.007233

$$$$
P67588
     RDKit          3D

 11 12  0  0  0  0  0  0  0  0999 V2000
   -9.8822    3.8983  -17.7234 O   0  0  0  0  0  0  0  0  0  0  0  0
   -8.9063    4.3239  -17.1351 C   0  0  0  0  0  0  0  0  0  0  0  0
   -7.7194    4.8840  -17.7896 C   0  0  0  0  0  0  0  0  0  0  0  0
   -6.7533    4.8606  -16.8571 C   0  0  0  0  0  0  0  0  0  0  0  0
   -5.3675    5.0598  -17.1675 C   0  0  0  0  0  0  0  0  0  0  0  0
   -4.3136    5.0016  -16.2774 C   0  0  0  0  0  0  0  0  0  0  0  0
   -2.8307    5.2245  -17.1173 S   0  0  0  0  0  0  0  0  0  0  0  0
   -3.7009    5.3773  -18.5830 C   0  0  0  0  0  0  0  0  0  0  0  0
   -5.0053    5.2885  -18.4869 N   0  0  0  0  0  0  0  0  0  0  0  0
   -7.2518    4.4918  -15.5988 N   0  0  0  0  0  0  0  0  0  0  0  0
   -8.6332    4.2575  -15.7786 N   0  0  0  0  0  0  0  0  0  0  0  0
  1  2  2  0
  2  3  1  0
  3  4  2  0
  4  5  1  0
  5  6  2  0
  6  7  1  0
  7  8  1  0
  8  9  2  0
  4 10  1  0
 10 11  1  0
 11  2  1  0
  9  5  1  0
M  END
>  <tags>  (368) 
openbind_xx01zvns2b_c1_knitwork_impure,BulkDock Fragalysis export,fragmenstein_placed,openbind_xx01zvns2b_c1_scaffolds

>  <placement_batch>  (368) 
openbind_xx01zvns2b_c1_knitwork_impure

>  <inspiration_score>  (368) 
None

>  <name>  (368) 
P67588

>  <HIPPO Pose ID>  (368) 
67588

>  <ref_pdb>  (368) 
Z0693a

>  <inchikey>  (368) 
RJJRHRPCONDUII-UHFFFAOYSA-N

>  <alias>  (368) 
None

>  <ref_mols>  (368) 
Z0693a,Z0465a

>  <subsites>  (368) 
1 - Z4590/B/203/1

>  <distance_score>  (368) 
0.991827

>  <HIPPO Compound ID>  (368) 
8188

>  <smiles>  (368) 
O=c1cc(-c2cscn2)[nH][nH]1

>  <energy_score>  (368) 
-70.679498

$$$$
P67604
     RDKit          3D

 16 17  0  0  0  0  0  0  0  0999 V2000
   -6.6132    6.0006  -14.6519 C   0  0  0  0  0  0  0  0  0  0  0  0
   -7.6175    5.2998  -15.5062 C   0  0  0  0  0  0  0  0  0  0  0  0
   -8.8697    5.0115  -14.9860 N   0  0  0  0  0  0  0  0  0  0  0  0
   -9.5713    4.3677  -16.0134 N   0  0  0  0  0  0  0  0  0  0  0  0
   -8.8157    4.3412  -17.1681 C   0  0  0  0  0  0  0  0  0  0  0  0
   -9.2234    4.0050  -18.2614 O   0  0  0  0  0  0  0  0  0  0  0  0
   -7.5003    4.9149  -16.7888 C   0  0  0  0  0  0  0  0  0  0  0  0
   -6.4626    5.1843  -17.5953 N   0  0  0  0  0  0  0  0  0  0  0  0
   -6.2062    4.7881  -19.0781 C   0  0  0  0  0  0  0  0  0  0  0  0
   -6.8232    4.1034  -19.7963 O   0  0  0  0  0  0  0  0  0  0  0  0
   -4.9894    5.5663  -19.5233 C   0  0  0  0  0  0  0  0  0  0  0  0
   -3.8576    5.4668  -18.6182 N   0  0  0  0  0  0  0  0  0  0  0  0
   -2.5826    5.1230  -18.9614 C   0  0  0  0  0  0  0  0  0  0  0  0
   -1.8121    5.3738  -17.8529 C   0  0  0  0  0  0  0  0  0  0  0  0
   -2.7122    5.8155  -16.8721 C   0  0  0  0  0  0  0  0  0  0  0  0
   -3.9550    5.9205  -17.3436 N   0  0  0  0  0  0  0  0  0  0  0  0
  1  2  1  0
  2  3  1  0
  3  4  1  0
  4  5  1  0
  5  6  2  0
  5  7  1  0
  7  8  1  0
  8  9  1  0
  9 10  2  0
  9 11  1  0
 11 12  1  0
 12 13  1  0
 13 14  2  0
 14 15  1  0
 15 16  2  0
  7  2  2  0
 16 12  1  0
M  END
>  <tags>  (369) 
openbind_xx01zvns2b_c1_knitwork_impure,BulkDock Fragalysis export,fragmenstein_placed,openbind_xx01zvns2b_c1_scaffolds

>  <placement_batch>  (369) 
openbind_xx01zvns2b_c1_knitwork_impure

>  <inspiration_score>  (369) 
None

>  <name>  (369) 
P67604

>  <HIPPO Pose ID>  (369) 
67604

>  <ref_pdb>  (369) 
Z0693a

>  <inchikey>  (369) 
TXGXMEQCNZCZBZ-UHFFFAOYSA-N

>  <alias>  (369) 
None

>  <ref_mols>  (369) 
Z0693a,Z0465a

>  <subsites>  (369) 
1 - Z4590/B/203/1

>  <distance_score>  (369) 
0.972312

>  <HIPPO Compound ID>  (369) 
63476

>  <smiles>  (369) 
Cc1[nH][nH]c(=O)c1NC(=O)Cn1cccn1

>  <energy_score>  (369) 
-26.013908

$$$$
P67657
     RDKit          3D

 20 21  0  0  0  0  0  0  0  0999 V2000
   -5.1044    4.5026  -14.9029 C   0  0  0  0  0  0  0  0  0  0  0  0
   -6.2666    4.3677  -13.8973 C   0  0  0  0  0  0  0  0  0  0  0  0
   -6.4334    2.8911  -13.4958 C   0  0  0  0  0  0  0  0  0  0  0  0
   -5.8507    5.1950  -12.6540 C   0  0  0  0  0  0  0  0  0  0  0  0
   -6.6756    5.0587  -11.4838 N   0  0  0  0  0  0  0  0  0  0  0  0
   -7.8670    5.8965  -11.0007 C   0  0  0  0  0  0  0  0  0  0  0  0
   -8.4207    6.7841  -11.5099 O   0  0  0  0  0  0  0  0  0  0  0  0
   -8.2212    5.4923   -9.6425 C   0  0  0  0  0  0  0  0  0  0  0  0
   -8.4470    6.3788   -8.5611 C   0  0  0  0  0  0  0  0  0  0  0  0
   -8.6967    5.7497   -7.4094 N   0  0  0  0  0  0  0  0  0  0  0  0
   -8.7129    4.4551   -7.7696 N   0  0  0  0  0  0  0  0  0  0  0  0
   -8.4343    4.2350   -9.0943 C   0  0  0  0  0  0  0  0  0  0  0  0
   -8.5199    2.8599   -9.6554 C   0  0  0  0  0  0  0  0  0  0  0  0
   -8.4902    1.8435   -8.6127 N   0  0  0  0  0  0  0  0  0  0  0  0
   -9.4035    2.1373   -7.5105 C   0  0  0  0  0  0  0  0  0  0  0  0
   -9.0149    3.4223   -6.7951 C   0  0  0  0  0  0  0  0  0  0  0  0
   -7.5950    4.9064  -14.5014 C   0  0  0  0  0  0  0  0  0  0  0  0
   -7.9008    4.4523  -15.9235 C   0  0  0  0  0  0  0  0  0  0  0  0
   -9.1740    4.7652  -16.2522 F   0  0  0  0  0  0  0  0  0  0  0  0
   -7.1073    5.1138  -16.8064 F   0  0  0  0  0  0  0  0  0  0  0  0
  1  2  1  0
  2  3  1  0
  2  4  1  0
  4  5  1  0
  5  6  1  0
  6  7  2  0
  6  8  1  0
  8  9  1  0
  9 10  2  0
 10 11  1  0
 11 12  1  0
 12 13  1  0
 13 14  1  0
 14 15  1  0
 15 16  1  0
  2 17  1  0
 17 18  1  0
 18 19  1  0
 18 20  1  0
 12  8  2  0
 16 11  1  0
M  END
>  <tags>  (370) 
openbind_xx01zvns2b_c1_knitwork_impure,fragmenstein_placed,openbind_xx01zvns2b_c1_scaffolds_chemok_bbok,BulkDock Fragalysis export,openbind_xx01zvns2b_c1_scaffolds

>  <placement_batch>  (370) 
openbind_xx01zvns2b_c1_knitwork_impure

>  <inspiration_score>  (370) 
None

>  <name>  (370) 
P67657

>  <HIPPO Pose ID>  (370) 
67657

>  <ref_pdb>  (370) 
Z0969a

>  <inchikey>  (370) 
NIOSYXKMZVDOQR-UHFFFAOYSA-N

>  <alias>  (370) 
None

>  <ref_mols>  (370) 
Z0719a,Z0969a

>  <subsites>  (370) 
1 - Z4590/B/203/1

>  <distance_score>  (370) 
0.736454

>  <HIPPO Compound ID>  (370) 
119270

>  <smiles>  (370) 
CC(C)(CNC(=O)c1cnn2c1CNCC2)CC(F)F

>  <energy_score>  (370) 
-17.544268

$$$$
P67801
     RDKit          3D

 23 25  0  0  0  0  0  0  0  0999 V2000
   -7.6555    4.3241  -14.9354 C   0  0  0  0  0  0  0  0  0  0  0  0
   -8.0826    5.2841  -16.0350 C   0  0  2  0  0  0  0  0  0  0  0  0
   -9.3601    4.8173  -16.5773 N   0  0  0  0  0  0  0  0  0  0  0  0
   -9.5567    4.1771  -17.7609 C   0  0  0  0  0  0  0  0  0  0  0  0
  -10.6481    3.6742  -18.0101 O   0  0  0  0  0  0  0  0  0  0  0  0
   -8.4584    4.2507  -18.7862 C   0  0  0  0  0  0  0  0  0  0  0  0
   -7.0627    4.4772  -18.2227 C   0  0  0  0  0  0  0  0  0  0  0  0
   -7.0940    5.5808  -17.1901 C   0  0  2  0  0  0  0  0  0  0  0  0
   -5.7694    6.1378  -16.8691 N   0  0  0  0  0  0  0  0  0  0  0  0
   -4.6492    5.3515  -15.9031 S   0  0  0  0  0  0  0  0  0  0  0  0
   -4.5369    6.1350  -14.6943 O   0  0  0  0  0  0  0  0  0  0  0  0
   -4.9003    3.9369  -15.8704 O   0  0  0  0  0  0  0  0  0  0  0  0
   -3.1719    5.5588  -16.8559 C   0  0  0  0  0  0  0  0  0  0  0  0
   -3.0999    4.9687  -18.1155 C   0  0  0  0  0  0  0  0  0  0  0  0
   -1.9349    5.1071  -18.8638 C   0  0  0  0  0  0  0  0  0  0  0  0
   -0.8215    5.8190  -18.3666 C   0  0  0  0  0  0  0  0  0  0  0  0
   -0.9148    6.4320  -17.0962 C   0  0  0  0  0  0  0  0  0  0  0  0
   -2.0951    6.2761  -16.3419 C   0  0  0  0  0  0  0  0  0  0  0  0
    0.2110    7.2150  -16.4489 C   0  0  0  0  0  0  0  0  0  0  0  0
    1.0974    7.9936  -17.4167 C   0  0  0  0  0  0  0  0  0  0  0  0
    2.1484    7.1177  -18.0964 C   0  0  0  0  0  0  0  0  0  0  0  0
    1.6706    5.8163  -18.5471 N   0  0  0  0  0  0  0  0  0  0  0  0
    0.4002    5.8927  -19.2634 C   0  0  0  0  0  0  0  0  0  0  0  0
  2  1  1  1
  2  3  1  0
  3  4  1  0
  4  5  2  0
  4  6  1  0
  6  7  1  0
  7  8  1  0
  8  9  1  1
  9 10  1  0
 10 11  2  0
 10 12  2  0
 10 13  1  0
 13 14  2  0
 14 15  1  0
 15 16  2  0
 16 17  1  0
 17 18  2  0
 17 19  1  0
 19 20  1  0
 20 21  1  0
 21 22  1  0
 22 23  1  0
  8  2  1  0
 18 13  1  0
 23 16  1  0
M  END
>  <tags>  (371) 
openbind_xx01zvns2b_c1_knitwork_impure,fragmenstein_placed,openbind_xx01zvns2b_c1_scaffolds_chemok_bbok,BulkDock Fragalysis export,openbind_xx01zvns2b_c1_scaffolds

>  <placement_batch>  (371) 
openbind_xx01zvns2b_c1_knitwork_impure

>  <inspiration_score>  (371) 
None

>  <name>  (371) 
P67801

>  <HIPPO Pose ID>  (371) 
67801

>  <ref_pdb>  (371) 
Z0673a

>  <inchikey>  (371) 
BNVDJADCKOWQAC-UHFFFAOYSA-N

>  <alias>  (371) 
None

>  <ref_mols>  (371) 
Z3729a,Z0673a

>  <subsites>  (371) 
1 - Z4590/B/203/1

>  <distance_score>  (371) 
0.884168

>  <HIPPO Compound ID>  (371) 
60098

>  <smiles>  (371) 
C[C@@H]1NC(=O)CC[C@@H]1NS(=O)(=O)c1ccc2c(c1)CCCNC2

>  <energy_score>  (371) 
-40.854804

$$$$
P67822
     RDKit          3D

 17 18  0  0  0  0  0  0  0  0999 V2000
   -3.5798    2.3994  -14.0400 C   0  0  0  0  0  0  0  0  0  0  0  0
   -4.1783    3.3490  -13.0131 C   0  0  0  0  0  0  0  0  0  0  0  0
   -5.7213    3.4276  -12.9387 C   0  0  0  0  0  0  0  0  0  0  0  0
   -6.3265    2.0662  -12.5887 C   0  0  0  0  0  0  0  0  0  0  0  0
   -6.0910    4.4319  -11.8331 C   0  0  0  0  0  0  0  0  0  0  0  0
   -6.2937    3.8098  -14.2237 N   0  0  0  0  0  0  0  0  0  0  0  0
   -7.4533    4.7638  -14.5572 C   0  0  0  0  0  0  0  0  0  0  0  0
   -8.0859    5.4554  -13.8646 O   0  0  0  0  0  0  0  0  0  0  0  0
   -7.8134    4.6509  -15.9797 C   0  0  0  0  0  0  0  0  0  0  0  0
   -9.1141    4.2417  -16.2918 C   0  0  0  0  0  0  0  0  0  0  0  0
   -9.5452    4.1355  -17.6088 C   0  0  0  0  0  0  0  0  0  0  0  0
   -8.6721    4.4043  -18.6556 C   0  0  0  0  0  0  0  0  0  0  0  0
   -7.3782    4.8159  -18.3218 C   0  0  0  0  0  0  0  0  0  0  0  0
   -6.3331    5.2040  -19.1094 N   0  0  0  0  0  0  0  0  0  0  0  0
   -5.2237    5.5511  -18.4230 N   0  0  0  0  0  0  0  0  0  0  0  0
   -5.5915    5.3954  -17.1483 C   0  0  0  0  0  0  0  0  0  0  0  0
   -6.9221    4.9466  -17.0158 C   0  0  0  0  0  0  0  0  0  0  0  0
  1  2  1  0
  2  3  1  0
  3  4  1  0
  3  5  1  0
  3  6  1  0
  6  7  1  0
  7  8  2  0
  7  9  1  0
  9 10  2  0
 10 11  1  0
 11 12  2  0
 12 13  1  0
 13 14  1  0
 14 15  1  0
 15 16  2  0
 16 17  1  0
 17  9  1  0
 17 13  2  0
M  END
>  <tags>  (372) 
openbind_xx01zvns2b_c1_knitwork_impure,fragmenstein_placed,openbind_xx01zvns2b_c1_scaffolds_chemok_bbok,BulkDock Fragalysis export,openbind_xx01zvns2b_c1_scaffolds

>  <placement_batch>  (372) 
openbind_xx01zvns2b_c1_knitwork_impure

>  <inspiration_score>  (372) 
None

>  <name>  (372) 
P67822

>  <HIPPO Pose ID>  (372) 
67822

>  <ref_pdb>  (372) 
Z0701a

>  <inchikey>  (372) 
AVVIDCYMTMWAPZ-UHFFFAOYSA-N

>  <alias>  (372) 
None

>  <ref_mols>  (372) 
Z0701a,Z0719a

>  <subsites>  (372) 
1 - Z4590/B/203/1

>  <distance_score>  (372) 
0.901915

>  <HIPPO Compound ID>  (372) 
120886

>  <smiles>  (372) 
CCC(C)(C)NC(=O)c1cccc2[nH]ncc12

>  <energy_score>  (372) 
-9.875225

$$$$
P67830
     RDKit          3D

 16 17  0  0  0  0  0  0  0  0999 V2000
   -3.5664    2.3762  -11.9622 C   0  0  0  0  0  0  0  0  0  0  0  0
   -4.3198    2.6758  -13.2496 C   0  0  0  0  0  0  0  0  0  0  0  0
   -5.6811    3.3397  -13.0206 C   0  0  2  0  0  0  0  0  0  0  0  0
   -6.6780    2.4165  -12.3325 C   0  0  0  0  0  0  0  0  0  0  0  0
   -6.2680    3.7405  -14.2796 N   0  0  0  0  0  0  0  0  0  0  0  0
   -7.2702    4.8533  -14.6011 C   0  0  0  0  0  0  0  0  0  0  0  0
   -7.7273    5.6768  -13.9190 O   0  0  0  0  0  0  0  0  0  0  0  0
   -7.7306    4.7104  -15.9895 C   0  0  0  0  0  0  0  0  0  0  0  0
   -9.0507    4.3119  -16.2188 C   0  0  0  0  0  0  0  0  0  0  0  0
   -9.5477    4.1886  -17.5128 C   0  0  0  0  0  0  0  0  0  0  0  0
   -8.7274    4.4300  -18.6105 C   0  0  0  0  0  0  0  0  0  0  0  0
   -7.4100    4.8196  -18.3514 C   0  0  0  0  0  0  0  0  0  0  0  0
   -6.3991    5.1787  -19.1960 N   0  0  0  0  0  0  0  0  0  0  0  0
   -5.2459    5.5006  -18.5719 N   0  0  0  0  0  0  0  0  0  0  0  0
   -5.5510    5.3677  -17.2782 C   0  0  0  0  0  0  0  0  0  0  0  0
   -6.8857    4.9621  -17.0739 C   0  0  0  0  0  0  0  0  0  0  0  0
  1  2  1  0
  2  3  1  0
  3  4  1  6
  3  5  1  0
  5  6  1  0
  6  7  2  0
  6  8  1  0
  8  9  2  0
  9 10  1  0
 10 11  2  0
 11 12  1  0
 12 13  1  0
 13 14  1  0
 14 15  2  0
 15 16  1  0
 16  8  1  0
 16 12  2  0
M  END
>  <tags>  (373) 
openbind_xx01zvns2b_c1_knitwork_impure,fragmenstein_placed,openbind_xx01zvns2b_c1_scaffolds_chemok_bbok,BulkDock Fragalysis export,openbind_xx01zvns2b_c1_scaffolds

>  <placement_batch>  (373) 
openbind_xx01zvns2b_c1_knitwork_impure

>  <inspiration_score>  (373) 
None

>  <name>  (373) 
P67830

>  <HIPPO Pose ID>  (373) 
67830

>  <ref_pdb>  (373) 
Z0701a

>  <inchikey>  (373) 
QJHKQZYRTIVJIB-UHFFFAOYSA-N

>  <alias>  (373) 
None

>  <ref_mols>  (373) 
Z0701a,Z0719a

>  <subsites>  (373) 
1 - Z4590/B/203/1

>  <distance_score>  (373) 
0.886953

>  <HIPPO Compound ID>  (373) 
120894

>  <smiles>  (373) 
CC[C@H](C)NC(=O)c1cccc2[nH]ncc12

>  <energy_score>  (373) 
-8.543149

$$$$
P67831
     RDKit          3D

 20 21  0  0  0  0  0  0  0  0999 V2000
   -4.0089    2.5573  -13.1122 C   0  0  0  0  0  0  0  0  0  0  0  0
   -5.3455    3.1693  -13.5561 C   0  0  0  0  0  0  0  0  0  0  0  0
   -6.4629    2.2633  -13.0653 C   0  0  0  0  0  0  0  0  0  0  0  0
   -5.4289    4.6844  -13.1667 C   0  0  0  0  0  0  0  0  0  0  0  0
   -4.5346    5.5135  -14.1391 C   0  0  0  0  0  0  0  0  0  0  0  0
   -5.0729    5.4442  -15.4652 N   0  0  0  0  0  0  0  0  0  0  0  0
   -4.4929    4.8186  -16.7512 C   0  0  0  0  0  0  0  0  0  0  0  0
   -3.4529    4.3295  -16.9515 O   0  0  0  0  0  0  0  0  0  0  0  0
   -5.5683    4.8335  -17.7691 C   0  0  0  0  0  0  0  0  0  0  0  0
   -5.3728    5.1633  -19.0593 N   0  0  0  0  0  0  0  0  0  0  0  0
   -6.6043    5.0595  -19.5945 N   0  0  0  0  0  0  0  0  0  0  0  0
   -7.5920    4.7052  -18.7197 C   0  0  0  0  0  0  0  0  0  0  0  0
   -8.9724    4.5296  -18.8757 C   0  0  0  0  0  0  0  0  0  0  0  0
   -9.7253    4.2330  -17.7436 C   0  0  0  0  0  0  0  0  0  0  0  0
   -9.1033    4.0471  -16.5212 C   0  0  0  0  0  0  0  0  0  0  0  0
   -7.7205    4.1488  -16.4100 C   0  0  0  0  0  0  0  0  0  0  0  0
   -6.9481    4.5409  -17.5137 C   0  0  0  0  0  0  0  0  0  0  0  0
   -6.8851    5.2634  -12.9950 C   0  0  0  0  0  0  0  0  0  0  0  0
   -6.9853    6.7913  -13.1557 C   0  0  0  0  0  0  0  0  0  0  0  0
   -7.4422    4.9556  -11.5893 C   0  0  0  0  0  0  0  0  0  0  0  0
  1  2  1  0
  2  3  1  0
  2  4  1  0
  4  5  1  0
  5  6  1  0
  6  7  1  0
  7  8  2  0
  7  9  1  0
  9 10  2  0
 10 11  1  0
 11 12  1  0
 12 13  2  0
 13 14  1  0
 14 15  2  0
 15 16  1  0
 16 17  2  0
  4 18  1  0
 18 19  1  0
 18 20  1  0
 17  9  1  0
 17 12  1  0
M  END
>  <tags>  (374) 
openbind_xx01zvns2b_c1_knitwork_impure,fragmenstein_placed,openbind_xx01zvns2b_c1_scaffolds_chemok_bbok,BulkDock Fragalysis export,openbind_xx01zvns2b_c1_scaffolds

>  <placement_batch>  (374) 
openbind_xx01zvns2b_c1_knitwork_impure

>  <inspiration_score>  (374) 
None

>  <name>  (374) 
P67831

>  <HIPPO Pose ID>  (374) 
67831

>  <ref_pdb>  (374) 
Z0701a

>  <inchikey>  (374) 
WOQLVNORXAVNCY-UHFFFAOYSA-N

>  <alias>  (374) 
None

>  <ref_mols>  (374) 
Z0701a,Z0719a

>  <subsites>  (374) 
1 - Z4590/B/203/1

>  <distance_score>  (374) 
0.930949

>  <HIPPO Compound ID>  (374) 
120896

>  <smiles>  (374) 
CC(C)C(CNC(=O)c1n[nH]c2ccccc12)C(C)C

>  <energy_score>  (374) 
-29.504625

$$$$
P67838
     RDKit          3D

 18 19  0  0  0  0  0  0  0  0999 V2000
   -2.2260    5.4693  -13.6637 C   0  0  0  0  0  0  0  0  0  0  0  0
   -3.2145    4.6176  -12.4119 S   0  0  0  0  0  0  0  0  0  0  0  0
   -2.1740    4.0964  -11.2276 O   0  0  0  0  0  0  0  0  0  0  0  0
   -3.6238    3.1818  -13.4512 C   0  0  0  0  0  0  0  0  0  0  0  0
   -4.7003    2.3055  -12.8200 C   0  0  0  0  0  0  0  0  0  0  0  0
   -6.0826    2.9477  -12.6981 C   0  0  0  0  0  0  0  0  0  0  0  0
   -6.6249    3.3158  -13.9829 N   0  0  0  0  0  0  0  0  0  0  0  0
   -6.4290    4.5895  -14.8223 C   0  0  0  0  0  0  0  0  0  0  0  0
   -5.7385    5.5111  -14.6463 O   0  0  0  0  0  0  0  0  0  0  0  0
   -7.2358    4.5386  -16.0630 C   0  0  0  0  0  0  0  0  0  0  0  0
   -8.6131    4.2659  -16.0389 C   0  0  0  0  0  0  0  0  0  0  0  0
   -9.3514    4.2427  -17.2239 C   0  0  0  0  0  0  0  0  0  0  0  0
   -8.7476    4.4930  -18.4563 C   0  0  0  0  0  0  0  0  0  0  0  0
   -7.3833    4.7909  -18.4464 C   0  0  0  0  0  0  0  0  0  0  0  0
   -6.5307    5.1427  -19.4577 N   0  0  0  0  0  0  0  0  0  0  0  0
   -5.2591    5.3521  -19.0639 N   0  0  0  0  0  0  0  0  0  0  0  0
   -5.3183    5.1566  -17.7428 C   0  0  0  0  0  0  0  0  0  0  0  0
   -6.6154    4.8211  -17.2919 C   0  0  0  0  0  0  0  0  0  0  0  0
  2  1  1  6
  2  3  1  0
  2  4  1  0
  4  5  1  0
  5  6  1  0
  6  7  1  0
  7  8  1  0
  8  9  2  0
  8 10  1  0
 10 11  2  0
 11 12  1  0
 12 13  2  0
 13 14  1  0
 14 15  1  0
 15 16  1  0
 16 17  2  0
 17 18  1  0
 18 10  1  0
 18 14  2  0
M  CHG  2   2   1   3  -1
M  END
>  <tags>  (375) 
openbind_xx01zvns2b_c1_knitwork_impure,fragmenstein_placed,openbind_xx01zvns2b_c1_scaffolds_chemok_bbok,BulkDock Fragalysis export,openbind_xx01zvns2b_c1_scaffolds

>  <placement_batch>  (375) 
openbind_xx01zvns2b_c1_knitwork_impure

>  <inspiration_score>  (375) 
None

>  <name>  (375) 
P67838

>  <HIPPO Pose ID>  (375) 
67838

>  <ref_pdb>  (375) 
Z0701a

>  <inchikey>  (375) 
UESQVLMSRRRBQA-UHFFFAOYSA-N

>  <alias>  (375) 
None

>  <ref_mols>  (375) 
Z0701a,Z0719a

>  <subsites>  (375) 
1 - Z4590/B/203/1

>  <distance_score>  (375) 
0.901914

>  <HIPPO Compound ID>  (375) 
120904

>  <smiles>  (375) 
C[S@+]([O-])CCCNC(=O)c1cccc2[nH]ncc12

>  <energy_score>  (375) 
-22.52656

$$$$
P68171
     RDKit          3D

 22 24  0  0  0  0  0  0  0  0999 V2000
   -9.4452    5.4045  -14.3679 O   0  0  0  0  0  0  0  0  0  0  0  0
   -8.4316    5.1142  -13.8677 C   0  0  0  0  0  0  0  0  0  0  0  0
   -7.0339    4.8855  -14.4919 N   0  0  0  0  0  0  0  0  0  0  0  0
   -6.6304    4.8744  -15.8212 C   0  0  0  0  0  0  0  0  0  0  0  0
   -7.5466    4.9064  -16.8714 C   0  0  0  0  0  0  0  0  0  0  0  0
   -7.0926    5.0448  -18.1833 C   0  0  0  0  0  0  0  0  0  0  0  0
   -5.7288    5.1935  -18.4242 C   0  0  0  0  0  0  0  0  0  0  0  0
   -5.2600    5.5005  -19.6717 O   0  0  0  0  0  0  0  0  0  0  0  0
   -5.4423    6.9066  -19.8974 C   0  0  0  0  0  0  0  0  0  0  0  0
   -5.1270    7.2561  -21.3458 C   0  0  0  0  0  0  0  0  0  0  0  0
   -5.1828    8.6706  -21.5367 O   0  0  0  0  0  0  0  0  0  0  0  0
   -4.8058    5.0700  -17.3927 C   0  0  0  0  0  0  0  0  0  0  0  0
   -5.2591    4.8986  -16.0870 C   0  0  0  0  0  0  0  0  0  0  0  0
   -8.2782    5.0008  -12.3964 C   0  0  0  0  0  0  0  0  0  0  0  0
   -8.1692    6.2033  -11.5774 C   0  0  0  0  0  0  0  0  0  0  0  0
   -8.1253    6.0685  -10.2407 C   0  0  0  0  0  0  0  0  0  0  0  0
   -8.1806    4.7892   -9.6901 N   0  0  0  0  0  0  0  0  0  0  0  0
   -8.1650    4.4023   -8.3755 C   0  0  0  0  0  0  0  0  0  0  0  0
   -8.2355    3.0279   -8.3993 C   0  0  0  0  0  0  0  0  0  0  0  0
   -8.2999    2.5657   -9.6844 N   0  0  0  0  0  0  0  0  0  0  0  0
   -8.2631    3.6286  -10.4496 C   0  0  0  0  0  0  0  0  0  0  0  0
   -8.3087    3.7655  -11.8619 C   0  0  0  0  0  0  0  0  0  0  0  0
  1  2  2  0
  2  3  1  0
  3  4  1  0
  4  5  2  0
  5  6  1  0
  6  7  2  0
  7  8  1  0
  8  9  1  0
  9 10  1  0
 10 11  1  0
  7 12  1  0
 12 13  2  0
  2 14  1  0
 14 15  1  0
 15 16  2  0
 16 17  1  0
 17 18  1  0
 18 19  2  0
 19 20  1  0
 20 21  2  0
 21 22  1  0
 13  4  1  0
 22 14  2  0
 21 17  1  0
M  END
>  <tags>  (376) 
openbind_xx01zvns2b_c1_knitwork_impure,BulkDock Fragalysis export,fragmenstein_placed,openbind_xx01zvns2b_c1_scaffolds

>  <placement_batch>  (376) 
openbind_xx01zvns2b_c1_knitwork_impure

>  <inspiration_score>  (376) 
None

>  <name>  (376) 
P68171

>  <HIPPO Pose ID>  (376) 
68171

>  <ref_pdb>  (376) 
Z1495a

>  <inchikey>  (376) 
SCXOFSQYRWVDST-UHFFFAOYSA-N

>  <alias>  (376) 
None

>  <ref_mols>  (376) 
Z1495a,Z0884a

>  <subsites>  (376) 
1 - Z4590/B/203/1

>  <distance_score>  (376) 
0.893186

>  <HIPPO Compound ID>  (376) 
121105

>  <smiles>  (376) 
O=C(Nc1ccc(OCCO)cc1)c1ccn2ccnc2c1

>  <energy_score>  (376) 
-23.14409

$$$$
P68213
     RDKit          3D

 12 14  0  0  0  0  0  0  0  0999 V2000
   -8.1957    4.6839  -15.6295 C   0  0  0  0  0  0  0  0  0  0  0  0
   -9.1544    4.3125  -16.5507 C   0  0  0  0  0  0  0  0  0  0  0  0
   -8.9655    4.3112  -17.8836 N   0  0  0  0  0  0  0  0  0  0  0  0
   -7.7467    4.7099  -18.3193 C   0  0  0  0  0  0  0  0  0  0  0  0
   -6.6989    5.1047  -17.4839 C   0  0  0  0  0  0  0  0  0  0  0  0
   -5.4043    5.5943  -18.0724 C   0  0  2  0  0  0  0  0  0  0  0  0
   -4.7341    4.6329  -18.9574 N   0  0  0  0  0  0  0  0  0  0  0  0
   -3.3155    4.9608  -19.0211 C   0  0  0  0  0  0  0  0  0  0  0  0
   -3.0213    5.5082  -17.6645 C   0  0  2  0  0  0  0  0  0  0  0  0
   -3.4674    4.8219  -16.3995 C   0  0  0  0  0  0  0  0  0  0  0  0
   -4.3223    5.8878  -17.0546 C   0  0  2  0  0  0  0  0  0  0  0  0
   -6.9557    5.0883  -16.1069 C   0  0  0  0  0  0  0  0  0  0  0  0
  1  2  2  0
  2  3  1  0
  3  4  2  0
  4  5  1  0
  6  5  1  1
  6  7  1  0
  7  8  1  0
  9  8  1  6
  9 10  1  0
 11 10  1  1
  5 12  2  0
 12  1  1  0
 11  6  1  0
 11  9  1  0
M  END
>  <tags>  (377) 
openbind_xx01zvns2b_c1_knitwork_impure,BulkDock Fragalysis export,fragmenstein_placed,openbind_xx01zvns2b_c1_scaffolds

>  <placement_batch>  (377) 
openbind_xx01zvns2b_c1_knitwork_impure

>  <inspiration_score>  (377) 
None

>  <name>  (377) 
P68213

>  <HIPPO Pose ID>  (377) 
68213

>  <ref_pdb>  (377) 
Z0465a

>  <inchikey>  (377) 
KZPCSVCJQGWDBQ-UHFFFAOYSA-N

>  <alias>  (377) 
None

>  <ref_mols>  (377) 
Z0827a,Z0465a

>  <subsites>  (377) 
1 - Z4590/B/203/1

>  <distance_score>  (377) 
0.825564

>  <HIPPO Compound ID>  (377) 
59162

>  <smiles>  (377) 
c1cncc([C@@H]2NC[C@@H]3C[C@@H]32)c1

>  <energy_score>  (377) 
-21.71675

$$$$
P68309
     RDKit          3D

 19 21  0  0  0  0  0  0  0  0999 V2000
   -5.0495    7.1331  -17.3073 O   0  0  0  0  0  0  0  0  0  0  0  0
   -5.3291    5.7999  -16.8133 S   0  0  0  0  0  0  0  0  0  0  0  0
   -4.6207    4.6547  -17.3358 O   0  0  0  0  0  0  0  0  0  0  0  0
   -4.8070    5.8807  -15.1446 C   0  0  0  0  0  0  0  0  0  0  0  0
   -4.6607    4.9814  -14.1057 C   0  0  0  0  0  0  0  0  0  0  0  0
   -4.1174    5.7259  -13.0448 C   0  0  0  0  0  0  0  0  0  0  0  0
   -3.9029    7.0002  -13.3777 N   0  0  0  0  0  0  0  0  0  0  0  0
   -4.3374    7.0647  -14.6511 N   0  0  0  0  0  0  0  0  0  0  0  0
   -6.9723    5.5601  -16.9749 N   0  0  0  0  0  0  0  0  0  0  0  0
   -7.4336    5.3124  -18.3728 C   0  0  0  0  0  0  0  0  0  0  0  0
   -8.6654    4.4237  -18.2656 C   0  0  0  0  0  0  0  0  0  0  0  0
   -8.9953    4.3773  -16.7864 C   0  0  0  0  0  0  0  0  0  0  0  0
   -7.6527    4.5801  -16.0943 C   0  0  2  0  0  0  0  0  0  0  0  0
   -7.8642    5.0100  -14.6496 C   0  0  0  0  0  0  0  0  0  0  0  0
   -7.9493    6.3280  -14.3607 N   0  0  0  0  0  0  0  0  0  0  0  0
   -8.0705    6.6489  -13.0581 C   0  0  0  0  0  0  0  0  0  0  0  0
   -8.1306    5.7214  -12.0458 C   0  0  0  0  0  0  0  0  0  0  0  0
   -8.0579    4.4094  -12.4404 C   0  0  0  0  0  0  0  0  0  0  0  0
   -7.9049    4.0348  -13.7225 N   0  0  0  0  0  0  0  0  0  0  0  0
  1  2  2  0
  2  3  2  0
  2  4  1  0
  4  5  2  0
  5  6  1  0
  6  7  2  0
  7  8  1  0
  2  9  1  0
  9 10  1  0
 10 11  1  0
 11 12  1  0
 12 13  1  0
 13 14  1  1
 14 15  2  0
 15 16  1  0
 16 17  2  0
 17 18  1  0
 18 19  2  0
  8  4  1  0
 13  9  1  0
 19 14  1  0
M  END
>  <tags>  (378) 
openbind_xx01zvns2b_c1_knitwork_impure,fragmenstein_placed,openbind_xx01zvns2b_c1_scaffolds_chemok_bbok,BulkDock Fragalysis export,openbind_xx01zvns2b_c1_scaffolds

>  <placement_batch>  (378) 
openbind_xx01zvns2b_c1_knitwork_impure

>  <inspiration_score>  (378) 
None

>  <name>  (378) 
P68309

>  <HIPPO Pose ID>  (378) 
68309

>  <ref_pdb>  (378) 
Z0875a

>  <inchikey>  (378) 
JYHAFSPEJPLGMY-UHFFFAOYSA-N

>  <alias>  (378) 
None

>  <ref_mols>  (378) 
Z1098a,Z0875a

>  <subsites>  (378) 
1 - Z4590/B/203/1

>  <distance_score>  (378) 
0.811703

>  <HIPPO Compound ID>  (378) 
119943

>  <smiles>  (378) 
O=S(=O)(c1ccn[nH]1)N1CCC[C@@H]1c1ncccn1

>  <energy_score>  (378) 
-51.480294

$$$$
P68455
     RDKit          3D

 14 15  0  0  0  0  0  0  0  0999 V2000
   -2.7463    5.0069  -15.2674 C   0  0  0  0  0  0  0  0  0  0  0  0
   -2.6351    5.9587  -16.4674 C   0  0  1  0  0  0  0  0  0  0  0  0
   -1.2095    6.1158  -16.8251 N   0  0  0  0  0  0  0  0  0  0  0  0
   -3.4744    5.5133  -17.7085 C   0  0  2  0  0  0  0  0  0  0  0  0
   -3.2845    6.4875  -18.8802 C   0  0  0  0  0  0  0  0  0  0  0  0
   -4.9391    5.3659  -17.3862 C   0  0  0  0  0  0  0  0  0  0  0  0
   -5.4936    5.4624  -16.1940 N   0  0  0  0  0  0  0  0  0  0  0  0
   -6.7731    5.0002  -16.3405 C   0  0  0  0  0  0  0  0  0  0  0  0
   -7.7480    4.7543  -15.3690 C   0  0  0  0  0  0  0  0  0  0  0  0
   -8.9876    4.2685  -15.7916 C   0  0  0  0  0  0  0  0  0  0  0  0
   -9.2644    4.0681  -17.1469 C   0  0  0  0  0  0  0  0  0  0  0  0
   -8.2949    4.2940  -18.1256 C   0  0  0  0  0  0  0  0  0  0  0  0
   -7.0571    4.7476  -17.6741 C   0  0  0  0  0  0  0  0  0  0  0  0
   -5.8817    5.0090  -18.3273 N   0  0  0  0  0  0  0  0  0  0  0  0
  2  1  1  1
  2  3  1  0
  2  4  1  0
  4  5  1  6
  4  6  1  0
  6  7  2  0
  7  8  1  0
  8  9  2  0
  9 10  1  0
 10 11  2  0
 11 12  1  0
 12 13  2  0
 13 14  1  0
 14  6  1  0
 13  8  1  0
M  END
>  <tags>  (379) 
openbind_xx01zvns2b_c1_knitwork_impure,BulkDock Fragalysis export,fragmenstein_placed,openbind_xx01zvns2b_c1_scaffolds

>  <placement_batch>  (379) 
openbind_xx01zvns2b_c1_knitwork_impure

>  <inspiration_score>  (379) 
None

>  <name>  (379) 
P68455

>  <HIPPO Pose ID>  (379) 
68455

>  <ref_pdb>  (379) 
Z3476a

>  <inchikey>  (379) 
BZIPVVILBPAWCF-UHFFFAOYSA-N

>  <alias>  (379) 
None

>  <ref_mols>  (379) 
Z3476a,Z0472a

>  <subsites>  (379) 
1 - Z4590/B/203/1

>  <distance_score>  (379) 
0.482915

>  <HIPPO Compound ID>  (379) 
108806

>  <smiles>  (379) 
C[C@H](c1nc2ccccc2[nH]1)[C@@H](C)N

>  <energy_score>  (379) 
-20.319125

$$$$
P68457
     RDKit          3D

 15 16  0  0  0  0  0  0  0  0999 V2000
   -3.3339    5.5087  -13.8112 C   0  0  0  0  0  0  0  0  0  0  0  0
   -2.5119    5.2217  -15.0707 C   0  0  2  0  0  0  0  0  0  0  0  0
   -1.0922    5.3657  -14.6580 N   0  0  0  0  0  0  0  0  0  0  0  0
   -2.8417    6.1878  -16.2481 C   0  0  0  0  0  0  0  0  0  0  0  0
   -3.5554    5.5470  -17.3698 N   0  0  0  0  0  0  0  0  0  0  0  0
   -2.9957    5.7347  -18.6960 C   0  0  0  0  0  0  0  0  0  0  0  0
   -4.8881    5.3436  -17.1866 C   0  0  0  0  0  0  0  0  0  0  0  0
   -5.5268    5.4065  -16.0418 N   0  0  0  0  0  0  0  0  0  0  0  0
   -6.7885    4.9466  -16.2855 C   0  0  0  0  0  0  0  0  0  0  0  0
   -7.8252    4.6807  -15.3864 C   0  0  0  0  0  0  0  0  0  0  0  0
   -9.0306    4.2005  -15.9010 C   0  0  0  0  0  0  0  0  0  0  0  0
   -9.2139    4.0225  -17.2746 C   0  0  0  0  0  0  0  0  0  0  0  0
   -8.1818    4.2725  -18.1820 C   0  0  0  0  0  0  0  0  0  0  0  0
   -6.9789    4.7229  -17.6403 C   0  0  0  0  0  0  0  0  0  0  0  0
   -5.7576    5.0051  -18.1985 N   0  0  0  0  0  0  0  0  0  0  0  0
  2  1  1  1
  2  3  1  0
  2  4  1  0
  4  5  1  0
  5  6  1  0
  5  7  1  0
  7  8  2  0
  8  9  1  0
  9 10  2  0
 10 11  1  0
 11 12  2  0
 12 13  1  0
 13 14  2  0
 14 15  1  0
 15  7  1  0
 14  9  1  0
M  END
>  <tags>  (380) 
openbind_xx01zvns2b_c1_knitwork_impure,BulkDock Fragalysis export,fragmenstein_placed,openbind_xx01zvns2b_c1_scaffolds

>  <placement_batch>  (380) 
openbind_xx01zvns2b_c1_knitwork_impure

>  <inspiration_score>  (380) 
None

>  <name>  (380) 
P68457

>  <HIPPO Pose ID>  (380) 
68457

>  <ref_pdb>  (380) 
Z3476a

>  <inchikey>  (380) 
ZQDVODBOKNTKHY-UHFFFAOYSA-N

>  <alias>  (380) 
None

>  <ref_mols>  (380) 
Z3476a,Z0472a

>  <subsites>  (380) 
1 - Z4590/B/203/1

>  <distance_score>  (380) 
0.552071

>  <HIPPO Compound ID>  (380) 
108830

>  <smiles>  (380) 
C[C@H](N)CN(C)c1nc2ccccc2[nH]1

>  <energy_score>  (380) 
-33.98114

$$$$
