ver_1.2
     RDKit          3D

 20 22  0  0  0  0  0  0  0  0999 V2000
   -1.1096    3.7136    1.2771 C   0  0  0  0  0  0  0  0  0  0  0  0
   -0.4668    2.9312    0.2745 O   0  0  0  0  0  0  0  0  0  0  0  0
   -0.8516    1.6126    0.0238 C   0  0  0  0  0  0  0  0  0  0  0  0
   -1.8482    1.1014    0.7630 N   0  0  0  0  0  0  0  0  0  0  0  0
   -2.3153   -0.1418    0.6287 C   0  0  0  0  0  0  0  0  0  0  0  0
   -3.3475   -0.5818    1.4365 C   0  0  0  0  0  0  0  0  0  0  0  0
   -3.8338   -1.8729    1.2960 C   0  0  0  0  0  0  0  0  0  0  0  0
   -3.2697   -2.6907    0.3456 C   0  0  0  0  0  0  0  0  0  0  0  0
   -2.2412   -2.2297   -0.4473 C   0  0  0  0  0  0  0  0  0  0  0  0
   -1.7383   -0.9501   -0.3288 C   0  0  0  0  0  0  0  0  0  0  0  0
   -0.7164   -0.4573   -1.1020 C   0  0  0  0  0  0  0  0  0  0  0  0
   -0.2532    0.8300   -0.9421 C   0  0  0  0  0  0  0  0  0  0  0  0
    0.8447    1.4154   -1.7472 C   0  0  0  0  0  0  0  0  0  0  0  0
    2.1034    1.4832   -1.0499 N   0  0  0  0  0  0  0  0  0  0  0  0
    2.6375    0.2091   -0.6693 C   0  0  0  0  0  0  0  0  0  0  0  0
    3.9690    0.4952    0.0353 C   0  0  0  0  0  0  0  0  0  0  0  0
    4.6414   -0.8346    0.4016 C   0  0  0  0  0  0  0  0  0  0  0  0
    3.6502   -1.9651    0.3346 C   0  0  0  0  0  0  0  0  0  0  0  0
    2.3826   -1.6159    0.9530 N   0  0  0  0  0  0  0  0  0  0  0  0
    1.7627   -0.4519    0.3493 C   0  0  0  0  0  0  0  0  0  0  0  0
  1  2  1  0
  2  3  1  0
  3  4  2  0
  4  5  1  0
  5  6  2  0
  6  7  1  0
  7  8  2  0
  8  9  1  0
  9 10  2  0
 10 11  1  0
 11 12  2  0
 12 13  1  0
 13 14  1  0
 14 15  1  0
 15 16  1  0
 16 17  1  0
 17 18  1  0
 18 19  1  0
 19 20  1  0
 12  3  1  0
 20 15  1  0
 10  5  1  0
M  END
>  <ref_url>  (1) 
https://github.com/mwinokan/BulkDock

>  <submitter_name>  (1) 
Max Winokan

>  <submitter_email>  (1) 
max.winokan@diamond.ac.uk

>  <submitter_institution>  (1) 
DLS

>  <generation_date>  (1) 
2025-08-28

>  <method>  (1) 
openbind_xx01zvns2b_c1_knitwork_pure

>  <Energy>  (1) 
Energy

>  <scratch_subdir>  (1) 
scratch_subdir

>  <fragmenstein_runtime>  (1) 
fragmenstein_runtime

>  <fragmenstein_outcome>  (1) 
fragmenstein_outcome

>  <fragmenstein_mode>  (1) 
fragmenstein_mode

>  <fragmenstein_error>  (1) 
fragmenstein_error

>  <HIPPO Pose ID>  (1) 
HIPPO Pose ID

>  <HIPPO Compound ID>  (1) 
HIPPO Compound ID

>  <smiles>  (1) 
smiles

>  <ref_pdb>  (1) 
protein reference

>  <ref_mols>  (1) 
fragment inspirations

>  <original ID>  (1) 
alias

>  <compound inchikey>  (1) 
compound inchikey

>  <distance_score>  (1) 
distance_score

>  <energy_score>  (1) 
energy_score

>  <subsites>  (1) 
subsites

$$$$
O=C1CC[C@@H](N[C@H](CCc2ccccc2)c2ccccn2)CN1
     RDKit          3D

 23 25  0  0  0  0  0  0  0  0999 V2000
  -11.2312    4.3830  -18.6096 O   0  0  0  0  0  0  0  0  0  0  0  0
  -10.0650    4.3426  -18.2441 C   0  0  0  0  0  0  0  0  0  0  0  0
   -8.8924    4.2071  -19.1655 C   0  0  0  0  0  0  0  0  0  0  0  0
   -7.6924    5.0246  -18.7085 C   0  0  0  0  0  0  0  0  0  0  0  0
   -7.3091    4.6955  -17.2646 C   0  0  1  0  0  0  0  0  0  0  0  0
   -6.2343    5.6227  -16.8519 N   0  0  0  0  0  0  0  0  0  0  0  0
   -5.1383    5.0245  -16.0534 C   0  0  2  0  0  0  0  0  0  0  0  0
   -5.2553    5.3355  -14.5262 C   0  0  0  0  0  0  0  0  0  0  0  0
   -6.5934    4.8091  -14.0043 C   0  0  0  0  0  0  0  0  0  0  0  0
   -6.9666    4.7196  -12.5559 C   0  0  0  0  0  0  0  0  0  0  0  0
   -7.7329    3.6155  -12.1351 C   0  0  0  0  0  0  0  0  0  0  0  0
   -8.2635    3.5586  -10.8499 C   0  0  0  0  0  0  0  0  0  0  0  0
   -8.0485    4.6154   -9.9734 C   0  0  0  0  0  0  0  0  0  0  0  0
   -7.2994    5.7200  -10.3820 C   0  0  0  0  0  0  0  0  0  0  0  0
   -6.7579    5.7743  -11.6688 C   0  0  0  0  0  0  0  0  0  0  0  0
   -3.7778    5.3828  -16.6673 C   0  0  0  0  0  0  0  0  0  0  0  0
   -3.5424    5.0642  -18.0108 C   0  0  0  0  0  0  0  0  0  0  0  0
   -2.2997    5.3340  -18.5746 C   0  0  0  0  0  0  0  0  0  0  0  0
   -1.3159    5.9157  -17.7899 C   0  0  0  0  0  0  0  0  0  0  0  0
   -1.6188    6.1942  -16.4685 C   0  0  0  0  0  0  0  0  0  0  0  0
   -2.8187    5.9454  -15.8910 N   0  0  0  0  0  0  0  0  0  0  0  0
   -8.5564    4.7156  -16.3539 C   0  0  0  0  0  0  0  0  0  0  0  0
   -9.7969    4.2933  -16.9215 N   0  0  0  0  0  0  0  0  0  0  0  0
  1  2  2  0
  2  3  1  0
  3  4  1  0
  4  5  1  0
  5  6  1  1
  6  7  1  0
  7  8  1  1
  8  9  1  0
  9 10  1  0
 10 11  2  0
 11 12  1  0
 12 13  2  0
 13 14  1  0
 14 15  2  0
  7 16  1  0
 16 17  2  0
 17 18  1  0
 18 19  2  0
 19 20  1  0
 20 21  2  0
  5 22  1  0
 22 23  1  0
 23  2  1  0
 15 10  1  0
 21 16  1  0
M  END
>  <inchikey>  (1) 
ZTBROVONWJXOIG-UHFFFAOYSA-N

>  <alias>  (1) 
O=C1CC[C@@H](N[C@H](CCc2ccccc2)c2ccccn2)CN1

>  <tags>  (1) 
{'openbind_xx01zvns2b_c1_knitwork_pure', 'fragmenstein_placed'}

>  <HIPPO Pose ID>  (1) 
31684

>  <ref_pdb>  (1) 
71

>  <smiles>  (1) 
C47970-P29

>  <fragmenstein_runtime>  (1) 
3.989614

>  <fragmenstein_outcome>  (1) 
acceptable

>  <fragmenstein_mode>  (1) 
expansion

>  <fragmenstein_error>  (1) 


>  <HIPPO Compound ID>  (1) 
15239

>  <Energy>  (1) 
71.51138

>  <scratch_subdir>  (1) 
/opt/xchem-fragalysis-2/maxwin/BulkDock/SCRATCH/511030/C47970-P29

$$$$
CC(C)Nc1n[nH]c2ncc(Br)cc12
     RDKit          3D

 14 15  0  0  0  0  0  0  0  0999 V2000
   -5.0551    7.1661  -20.6202 C   0  0  0  0  0  0  0  0  0  0  0  0
   -4.6941    5.6872  -20.7526 C   0  0  0  0  0  0  0  0  0  0  0  0
   -3.7754    5.4905  -21.9606 C   0  0  0  0  0  0  0  0  0  0  0  0
   -3.9925    5.2031  -19.5729 N   0  0  0  0  0  0  0  0  0  0  0  0
   -4.5193    5.2021  -18.3279 C   0  0  0  0  0  0  0  0  0  0  0  0
   -3.7230    5.4348  -17.2801 N   0  0  0  0  0  0  0  0  0  0  0  0
   -4.5562    5.3902  -16.2281 N   0  0  0  0  0  0  0  0  0  0  0  0
   -5.8538    5.1525  -16.5562 C   0  0  0  0  0  0  0  0  0  0  0  0
   -6.8832    5.0828  -15.6895 N   0  0  0  0  0  0  0  0  0  0  0  0
   -8.0491    4.7643  -16.3042 C   0  0  0  0  0  0  0  0  0  0  0  0
   -8.2120    4.5700  -17.6698 C   0  0  0  0  0  0  0  0  0  0  0  0
   -9.9165    4.1996  -18.3713 Br  0  0  0  0  0  0  0  0  0  0  0  0
   -7.1125    4.6796  -18.5196 C   0  0  0  0  0  0  0  0  0  0  0  0
   -5.8732    4.9871  -17.9348 C   0  0  0  0  0  0  0  0  0  0  0  0
  1  2  1  0
  2  3  1  0
  2  4  1  0
  4  5  1  0
  5  6  2  0
  6  7  1  0
  7  8  1  0
  8  9  2  0
  9 10  1  0
 10 11  2  0
 11 12  1  0
 11 13  1  0
 13 14  2  0
 14  5  1  0
 14  8  1  0
M  END
>  <inchikey>  (2) 
ALNSTUWJBNDDKJ-UHFFFAOYSA-N

>  <alias>  (2) 
CC(C)Nc1n[nH]c2ncc(Br)cc12

>  <tags>  (2) 
{'openbind_xx01zvns2b_c1_knitwork_pure', 'fragmenstein_placed'}

>  <HIPPO Pose ID>  (2) 
31802

>  <ref_pdb>  (2) 
71

>  <smiles>  (2) 
C48178-P34

>  <fragmenstein_runtime>  (2) 
0.894133

>  <fragmenstein_outcome>  (2) 
acceptable

>  <fragmenstein_mode>  (2) 
expansion

>  <fragmenstein_error>  (2) 


>  <HIPPO Compound ID>  (2) 
2321

>  <Energy>  (2) 
0.470323

>  <scratch_subdir>  (2) 
/opt/xchem-fragalysis-2/maxwin/BulkDock/SCRATCH/511030/C48178-P34

$$$$
CC(C)Nc1n[nH]c2ncc(N)cc12
     RDKit          3D

 14 15  0  0  0  0  0  0  0  0999 V2000
   -2.2059    6.4656  -19.9068 C   0  0  0  0  0  0  0  0  0  0  0  0
   -2.8690    5.1030  -20.1200 C   0  0  0  0  0  0  0  0  0  0  0  0
   -2.7965    4.7504  -21.6090 C   0  0  0  0  0  0  0  0  0  0  0  0
   -4.2698    5.1375  -19.7056 N   0  0  0  0  0  0  0  0  0  0  0  0
   -4.6361    5.1264  -18.4018 C   0  0  0  0  0  0  0  0  0  0  0  0
   -3.8128    5.3188  -17.3650 N   0  0  0  0  0  0  0  0  0  0  0  0
   -4.6285    5.2833  -16.2963 N   0  0  0  0  0  0  0  0  0  0  0  0
   -5.9377    5.0751  -16.5986 C   0  0  0  0  0  0  0  0  0  0  0  0
   -6.9597    5.0294  -15.7234 N   0  0  0  0  0  0  0  0  0  0  0  0
   -8.1409    4.7505  -16.3384 C   0  0  0  0  0  0  0  0  0  0  0  0
   -8.3460    4.5228  -17.7033 C   0  0  0  0  0  0  0  0  0  0  0  0
   -9.6285    4.3974  -18.2412 N   0  0  0  0  0  0  0  0  0  0  0  0
   -7.2393    4.6602  -18.5476 C   0  0  0  0  0  0  0  0  0  0  0  0
   -5.9833    4.9260  -17.9738 C   0  0  0  0  0  0  0  0  0  0  0  0
  1  2  1  0
  2  3  1  0
  2  4  1  0
  4  5  1  0
  5  6  2  0
  6  7  1  0
  7  8  1  0
  8  9  2  0
  9 10  1  0
 10 11  2  0
 11 12  1  0
 11 13  1  0
 13 14  2  0
 14  5  1  0
 14  8  1  0
M  END
>  <inchikey>  (3) 
QGRUBUJNIXSMDP-UHFFFAOYSA-N

>  <alias>  (3) 
CC(C)Nc1n[nH]c2ncc(N)cc12

>  <tags>  (3) 
{'openbind_xx01zvns2b_c1_knitwork_pure', 'fragmenstein_placed'}

>  <HIPPO Pose ID>  (3) 
31804

>  <ref_pdb>  (3) 
71

>  <smiles>  (3) 
C48180-P34

>  <fragmenstein_runtime>  (3) 
0.699838

>  <fragmenstein_outcome>  (3) 
acceptable

>  <fragmenstein_mode>  (3) 
expansion

>  <fragmenstein_error>  (3) 


>  <HIPPO Compound ID>  (3) 
3559

>  <Energy>  (3) 
9.492013

>  <scratch_subdir>  (3) 
/opt/xchem-fragalysis-2/maxwin/BulkDock/SCRATCH/511030/C48180-P34

$$$$
CN1CCn2nc(NC(=O)c3cccc4ncccc34)cc2C1
     RDKit          3D

 23 26  0  0  0  0  0  0  0  0999 V2000
   -6.5857    4.9622   -7.4068 C   0  0  0  0  0  0  0  0  0  0  0  0
   -8.0311    4.8496   -7.3134 N   0  0  0  0  0  0  0  0  0  0  0  0
   -8.6329    6.1551   -7.6076 C   0  0  0  0  0  0  0  0  0  0  0  0
   -8.4826    6.6161   -9.0582 C   0  0  0  0  0  0  0  0  0  0  0  0
   -8.4767    5.5056   -9.9865 N   0  0  0  0  0  0  0  0  0  0  0  0
   -8.3192    5.7297  -11.2929 N   0  0  0  0  0  0  0  0  0  0  0  0
   -8.3268    4.5138  -11.8396 C   0  0  0  0  0  0  0  0  0  0  0  0
   -8.2234    4.3641  -13.1927 N   0  0  0  0  0  0  0  0  0  0  0  0
   -7.8193    5.3779  -14.2864 C   0  0  0  0  0  0  0  0  0  0  0  0
   -7.5859    6.5201  -14.2113 O   0  0  0  0  0  0  0  0  0  0  0  0
   -7.7885    4.7869  -15.6482 C   0  0  0  0  0  0  0  0  0  0  0  0
   -8.9748    4.2484  -16.1473 C   0  0  0  0  0  0  0  0  0  0  0  0
   -9.0900    3.9675  -17.5005 C   0  0  0  0  0  0  0  0  0  0  0  0
   -8.0004    4.1914  -18.3391 C   0  0  0  0  0  0  0  0  0  0  0  0
   -6.7869    4.6692  -17.8625 C   0  0  0  0  0  0  0  0  0  0  0  0
   -5.7726    4.8243  -18.7287 N   0  0  0  0  0  0  0  0  0  0  0  0
   -4.5961    5.2908  -18.2724 C   0  0  0  0  0  0  0  0  0  0  0  0
   -4.3681    5.6294  -16.9571 C   0  0  0  0  0  0  0  0  0  0  0  0
   -5.4174    5.4765  -16.0604 C   0  0  0  0  0  0  0  0  0  0  0  0
   -6.6674    4.9821  -16.4934 C   0  0  0  0  0  0  0  0  0  0  0  0
   -8.4538    3.5051  -10.8505 C   0  0  0  0  0  0  0  0  0  0  0  0
   -8.4947    4.1872   -9.6470 C   0  0  0  0  0  0  0  0  0  0  0  0
   -8.5571    3.7899   -8.2117 C   0  0  0  0  0  0  0  0  0  0  0  0
  1  2  1  0
  2  3  1  0
  3  4  1  0
  4  5  1  0
  5  6  1  0
  6  7  2  0
  7  8  1  0
  8  9  1  0
  9 10  2  0
  9 11  1  0
 11 12  2  0
 12 13  1  0
 13 14  2  0
 14 15  1  0
 15 16  2  0
 16 17  1  0
 17 18  2  0
 18 19  1  0
 19 20  2  0
  7 21  1  0
 21 22  2  0
 22 23  1  0
 23  2  1  0
 22  5  1  0
 20 11  1  0
 20 15  1  0
M  END
>  <inchikey>  (4) 
GYVKPIMAOKBQPC-UHFFFAOYSA-N

>  <alias>  (4) 
CN1CCn2nc(NC(=O)c3cccc4ncccc34)cc2C1

>  <tags>  (4) 
{'openbind_xx01zvns2b_c1_knitwork_pure', 'fragmenstein_placed'}

>  <HIPPO Pose ID>  (4) 
31856

>  <ref_pdb>  (4) 
71

>  <smiles>  (4) 
C48235-P59

>  <fragmenstein_runtime>  (4) 
2.768899

>  <fragmenstein_outcome>  (4) 
acceptable

>  <fragmenstein_mode>  (4) 
expansion

>  <fragmenstein_error>  (4) 


>  <HIPPO Compound ID>  (4) 
52276

>  <Energy>  (4) 
35.255551

>  <scratch_subdir>  (4) 
/opt/xchem-fragalysis-2/maxwin/BulkDock/SCRATCH/511030/C48235-P59

$$$$
O=C(Nc1ccc2c(c1)CNC2)[C@H]1CCCN(c2cc(=O)[nH]cn2)C1
     RDKit          3D

 25 28  0  0  0  0  0  0  0  0999 V2000
   -7.4839    6.5936  -13.1828 O   0  0  0  0  0  0  0  0  0  0  0  0
   -7.7262    5.4711  -13.4126 C   0  0  0  0  0  0  0  0  0  0  0  0
   -8.1492    4.3121  -12.4569 N   0  0  0  0  0  0  0  0  0  0  0  0
   -8.2617    4.2803  -11.0670 C   0  0  0  0  0  0  0  0  0  0  0  0
   -8.0824    5.4338  -10.2888 C   0  0  0  0  0  0  0  0  0  0  0  0
   -8.1670    5.3776   -8.8914 C   0  0  0  0  0  0  0  0  0  0  0  0
   -8.4353    4.1580   -8.2959 C   0  0  0  0  0  0  0  0  0  0  0  0
   -8.5986    3.0106   -9.0639 C   0  0  0  0  0  0  0  0  0  0  0  0
   -8.5205    3.0557  -10.4477 C   0  0  0  0  0  0  0  0  0  0  0  0
   -8.8133    1.8414   -8.1611 C   0  0  0  0  0  0  0  0  0  0  0  0
   -9.0956    2.4289   -6.8329 N   0  0  0  0  0  0  0  0  0  0  0  0
   -8.6037    3.8156   -6.8531 C   0  0  0  0  0  0  0  0  0  0  0  0
   -7.5788    4.8613  -14.8107 C   0  0  1  0  0  0  0  0  0  0  0  0
   -8.8909    4.8785  -15.5778 C   0  0  0  0  0  0  0  0  0  0  0  0
   -8.7068    4.3848  -17.0119 C   0  0  0  0  0  0  0  0  0  0  0  0
   -7.5060    4.9860  -17.7572 C   0  0  0  0  0  0  0  0  0  0  0  0
   -6.3103    5.0560  -16.9005 N   0  0  0  0  0  0  0  0  0  0  0  0
   -4.9849    5.0153  -17.3627 C   0  0  0  0  0  0  0  0  0  0  0  0
   -4.6646    4.9562  -18.6724 C   0  0  0  0  0  0  0  0  0  0  0  0
   -3.2431    4.9701  -19.0671 C   0  0  0  0  0  0  0  0  0  0  0  0
   -2.8613    4.8381  -20.2278 O   0  0  0  0  0  0  0  0  0  0  0  0
   -2.3543    5.1203  -18.0478 N   0  0  0  0  0  0  0  0  0  0  0  0
   -2.7639    5.1072  -16.7592 C   0  0  0  0  0  0  0  0  0  0  0  0
   -3.9913    5.0473  -16.3992 N   0  0  0  0  0  0  0  0  0  0  0  0
   -6.5616    5.6811  -15.5867 C   0  0  0  0  0  0  0  0  0  0  0  0
  1  2  2  0
  2  3  1  0
  3  4  1  0
  4  5  2  0
  5  6  1  0
  6  7  2  0
  7  8  1  0
  8  9  2  0
  8 10  1  0
 10 11  1  0
 11 12  1  0
 13  2  1  1
 13 14  1  0
 14 15  1  0
 15 16  1  0
 16 17  1  0
 17 18  1  0
 18 19  2  0
 19 20  1  0
 20 21  2  0
 20 22  1  0
 22 23  1  0
 23 24  2  0
 17 25  1  0
  9  4  1  0
 25 13  1  0
 12  7  1  0
 24 18  1  0
M  END
>  <inchikey>  (5) 
BWQHUTSQNYTJCI-UHFFFAOYSA-N

>  <alias>  (5) 
O=C(Nc1ccc2c(c1)CNC2)[C@H]1CCCN(c2cc(=O)[nH]cn2)C1

>  <tags>  (5) 
{'openbind_xx01zvns2b_c1_knitwork_pure', 'fragmenstein_placed'}

>  <HIPPO Pose ID>  (5) 
31894

>  <ref_pdb>  (5) 
71

>  <smiles>  (5) 
C5576-P11

>  <fragmenstein_runtime>  (5) 
6.570229

>  <fragmenstein_outcome>  (5) 
acceptable

>  <fragmenstein_mode>  (5) 
expansion

>  <fragmenstein_error>  (5) 


>  <HIPPO Compound ID>  (5) 
4207

>  <Energy>  (5) 
-69.033474

>  <scratch_subdir>  (5) 
/opt/xchem-fragalysis-2/maxwin/BulkDock/SCRATCH/511030/C5576-P11

$$$$
COc1ccnc(NC(=O)c2ccn3ccnc3c2)c1
     RDKit          3D

 20 22  0  0  0  0  0  0  0  0999 V2000
   -9.7737    4.4796  -18.5241 C   0  0  0  0  0  0  0  0  0  0  0  0
   -8.3988    4.4172  -18.8712 O   0  0  0  0  0  0  0  0  0  0  0  0
   -7.4886    4.7407  -17.9201 C   0  0  0  0  0  0  0  0  0  0  0  0
   -6.1814    4.9035  -18.3540 C   0  0  0  0  0  0  0  0  0  0  0  0
   -5.2125    5.1588  -17.4016 C   0  0  0  0  0  0  0  0  0  0  0  0
   -5.4634    5.2685  -16.0753 N   0  0  0  0  0  0  0  0  0  0  0  0
   -6.7503    5.1429  -15.6976 C   0  0  0  0  0  0  0  0  0  0  0  0
   -7.0394    5.2428  -14.3553 N   0  0  0  0  0  0  0  0  0  0  0  0
   -8.3978    5.3505  -13.6266 C   0  0  0  0  0  0  0  0  0  0  0  0
   -9.4801    5.4490  -14.0533 O   0  0  0  0  0  0  0  0  0  0  0  0
   -8.1486    5.2007  -12.1790 C   0  0  0  0  0  0  0  0  0  0  0  0
   -7.9018    6.3437  -11.3162 C   0  0  0  0  0  0  0  0  0  0  0  0
   -7.8568    6.1355   -9.9882 C   0  0  0  0  0  0  0  0  0  0  0  0
   -8.0319    4.8405   -9.4975 N   0  0  0  0  0  0  0  0  0  0  0  0
   -8.0346    4.3862   -8.2050 C   0  0  0  0  0  0  0  0  0  0  0  0
   -8.2364    3.0270   -8.2947 C   0  0  0  0  0  0  0  0  0  0  0  0
   -8.3769    2.6398   -9.5987 N   0  0  0  0  0  0  0  0  0  0  0  0
   -8.2411    3.7326  -10.3084 C   0  0  0  0  0  0  0  0  0  0  0  0
   -8.3007    3.9482  -11.7071 C   0  0  0  0  0  0  0  0  0  0  0  0
   -7.7804    4.8714  -16.5761 C   0  0  0  0  0  0  0  0  0  0  0  0
  1  2  1  0
  2  3  1  0
  3  4  2  0
  4  5  1  0
  5  6  2  0
  6  7  1  0
  7  8  1  0
  8  9  1  0
  9 10  2  0
  9 11  1  0
 11 12  1  0
 12 13  2  0
 13 14  1  0
 14 15  1  0
 15 16  2  0
 16 17  1  0
 17 18  2  0
 18 19  1  0
  7 20  2  0
 20  3  1  0
 19 11  2  0
 18 14  1  0
M  END
>  <inchikey>  (6) 
PSKHMHHAVMUFHN-UHFFFAOYSA-N

>  <alias>  (6) 
COc1ccnc(NC(=O)c2ccn3ccnc3c2)c1

>  <tags>  (6) 
{'openbind_xx01zvns2b_c1_knitwork_pure', 'fragmenstein_placed'}

>  <HIPPO Pose ID>  (6) 
32089

>  <ref_pdb>  (6) 
71

>  <smiles>  (6) 
C48450-P18

>  <fragmenstein_runtime>  (6) 
3.317464

>  <fragmenstein_outcome>  (6) 
acceptable

>  <fragmenstein_mode>  (6) 
expansion

>  <fragmenstein_error>  (6) 


>  <HIPPO Compound ID>  (6) 
6762

>  <Energy>  (6) 
8.751269

>  <scratch_subdir>  (6) 
/opt/xchem-fragalysis-2/maxwin/BulkDock/SCRATCH/511030/C48450-P18

$$$$
C[C@H](CCNC(=O)CCc1nccn1C)NCc1cscn1
     RDKit          3D

 22 23  0  0  0  0  0  0  0  0999 V2000
   -2.3474    8.4144  -17.9911 C   0  0  0  0  0  0  0  0  0  0  0  0
   -2.9869    7.1959  -18.6772 C   0  0  2  0  0  0  0  0  0  0  0  0
   -4.1675    7.6922  -19.5657 C   0  0  0  0  0  0  0  0  0  0  0  0
   -4.3363    6.8620  -20.8373 C   0  0  0  0  0  0  0  0  0  0  0  0
   -5.2003    7.4436  -21.8451 N   0  0  0  0  0  0  0  0  0  0  0  0
   -4.8625    8.0429  -23.2424 C   0  0  0  0  0  0  0  0  0  0  0  0
   -3.8295    8.2276  -23.7571 O   0  0  0  0  0  0  0  0  0  0  0  0
   -6.1943    8.3903  -23.9275 C   0  0  0  0  0  0  0  0  0  0  0  0
   -5.9802    8.8707  -25.3728 C   0  0  0  0  0  0  0  0  0  0  0  0
   -7.2438    9.3201  -26.0551 C   0  0  0  0  0  0  0  0  0  0  0  0
   -7.6805   10.5679  -26.0928 N   0  0  0  0  0  0  0  0  0  0  0  0
   -8.8302   10.5542  -26.8392 C   0  0  0  0  0  0  0  0  0  0  0  0
   -9.1154    9.2805  -27.2603 C   0  0  0  0  0  0  0  0  0  0  0  0
   -8.0930    8.5062  -26.7752 N   0  0  0  0  0  0  0  0  0  0  0  0
   -7.9657    7.0870  -27.0047 C   0  0  0  0  0  0  0  0  0  0  0  0
   -3.2762    6.2347  -17.5908 N   0  0  0  0  0  0  0  0  0  0  0  0
   -3.8641    4.9643  -18.0054 C   0  0  0  0  0  0  0  0  0  0  0  0
   -5.3357    4.9848  -17.7471 C   0  0  0  0  0  0  0  0  0  0  0  0
   -5.9504    5.0456  -16.5082 C   0  0  0  0  0  0  0  0  0  0  0  0
   -7.6511    4.9846  -16.6847 S   0  0  0  0  0  0  0  0  0  0  0  0
   -7.4504    4.8933  -18.3823 C   0  0  0  0  0  0  0  0  0  0  0  0
   -6.2109    4.9053  -18.8186 N   0  0  0  0  0  0  0  0  0  0  0  0
  2  1  1  1
  2  3  1  0
  3  4  1  0
  4  5  1  0
  5  6  1  0
  6  7  2  0
  6  8  1  0
  8  9  1  0
  9 10  1  0
 10 11  2  0
 11 12  1  0
 12 13  2  0
 13 14  1  0
 14 15  1  0
  2 16  1  0
 16 17  1  0
 17 18  1  0
 18 19  2  0
 19 20  1  0
 20 21  1  0
 21 22  2  0
 14 10  1  0
 22 18  1  0
M  END
>  <inchikey>  (7) 
AJORIAVLFBOMLA-UHFFFAOYSA-N

>  <alias>  (7) 
C[C@H](CCNC(=O)CCc1nccn1C)NCc1cscn1

>  <tags>  (7) 
{'openbind_xx01zvns2b_c1_knitwork_pure', 'fragmenstein_placed'}

>  <HIPPO Pose ID>  (7) 
32207

>  <ref_pdb>  (7) 
71

>  <smiles>  (7) 
C12111-P44

>  <fragmenstein_runtime>  (7) 
2.707979

>  <fragmenstein_outcome>  (7) 
acceptable

>  <fragmenstein_mode>  (7) 
expansion

>  <fragmenstein_error>  (7) 


>  <HIPPO Compound ID>  (7) 
12461

>  <Energy>  (7) 
14.845769

>  <scratch_subdir>  (7) 
/opt/xchem-fragalysis-2/maxwin/BulkDock/SCRATCH/511030/C12111-P44

$$$$
O=C(Nc1cccc(OC(F)F)n1)c1ccn2ccnc2c1
     RDKit          3D

 22 24  0  0  0  0  0  0  0  0999 V2000
   -9.5752    5.6986  -14.3308 O   0  0  0  0  0  0  0  0  0  0  0  0
   -8.4705    5.4300  -14.0595 C   0  0  0  0  0  0  0  0  0  0  0  0
   -7.2680    5.0843  -14.9726 N   0  0  0  0  0  0  0  0  0  0  0  0
   -7.2013    4.9117  -16.3448 C   0  0  0  0  0  0  0  0  0  0  0  0
   -8.3875    4.7024  -17.0325 C   0  0  0  0  0  0  0  0  0  0  0  0
   -8.3375    4.4773  -18.3925 C   0  0  0  0  0  0  0  0  0  0  0  0
   -7.1073    4.4841  -19.0256 C   0  0  0  0  0  0  0  0  0  0  0  0
   -5.9527    4.7376  -18.2921 C   0  0  0  0  0  0  0  0  0  0  0  0
   -4.6956    4.8271  -18.8599 O   0  0  0  0  0  0  0  0  0  0  0  0
   -4.7194    4.8874  -20.2748 C   0  0  0  0  0  0  0  0  0  0  0  0
   -3.4639    5.1219  -20.7303 F   0  0  0  0  0  0  0  0  0  0  0  0
   -5.4623    5.9430  -20.6735 F   0  0  0  0  0  0  0  0  0  0  0  0
   -5.9822    4.9219  -16.9442 N   0  0  0  0  0  0  0  0  0  0  0  0
   -8.0799    5.2850  -12.6347 C   0  0  0  0  0  0  0  0  0  0  0  0
   -8.0105    6.4418  -11.7496 C   0  0  0  0  0  0  0  0  0  0  0  0
   -8.0051    6.2367  -10.4197 C   0  0  0  0  0  0  0  0  0  0  0  0
   -8.0498    4.9299   -9.9358 N   0  0  0  0  0  0  0  0  0  0  0  0
   -8.0855    4.4715   -8.6441 C   0  0  0  0  0  0  0  0  0  0  0  0
   -8.1283    3.0989   -8.7447 C   0  0  0  0  0  0  0  0  0  0  0  0
   -8.1152    2.7058  -10.0559 N   0  0  0  0  0  0  0  0  0  0  0  0
   -8.0754    3.8107  -10.7581 C   0  0  0  0  0  0  0  0  0  0  0  0
   -8.1065    4.0228  -12.1613 C   0  0  0  0  0  0  0  0  0  0  0  0
  1  2  2  0
  2  3  1  0
  3  4  1  0
  4  5  2  0
  5  6  1  0
  6  7  2  0
  7  8  1  0
  8  9  1  0
  9 10  1  0
 10 11  1  0
 10 12  1  0
  8 13  2  0
  2 14  1  0
 14 15  1  0
 15 16  2  0
 16 17  1  0
 17 18  1  0
 18 19  2  0
 19 20  1  0
 20 21  2  0
 21 22  1  0
 13  4  1  0
 22 14  2  0
 21 17  1  0
M  END
>  <inchikey>  (8) 
APGTVBVLWQJRCL-UHFFFAOYSA-N

>  <alias>  (8) 
O=C(Nc1cccc(OC(F)F)n1)c1ccn2ccnc2c1

>  <tags>  (8) 
{'openbind_xx01zvns2b_c1_knitwork_pure', 'fragmenstein_placed'}

>  <HIPPO Pose ID>  (8) 
32235

>  <ref_pdb>  (8) 
71

>  <smiles>  (8) 
C48453-P51

>  <fragmenstein_runtime>  (8) 
3.649053

>  <fragmenstein_outcome>  (8) 
acceptable

>  <fragmenstein_mode>  (8) 
expansion

>  <fragmenstein_error>  (8) 


>  <HIPPO Compound ID>  (8) 
53732

>  <Energy>  (8) 
-3.45417

>  <scratch_subdir>  (8) 
/opt/xchem-fragalysis-2/maxwin/BulkDock/SCRATCH/511030/C48453-P51

$$$$
CC(C)Oc1cc(C(=O)Nc2ccn3ccnc3c2)ccn1
     RDKit          3D

 22 24  0  0  0  0  0  0  0  0999 V2000
   -8.2754    1.5260   -7.9414 C   0  0  0  0  0  0  0  0  0  0  0  0
   -8.1342    2.9581   -8.4312 C   0  0  0  0  0  0  0  0  0  0  0  0
   -8.8996    3.8560   -7.4672 C   0  0  0  0  0  0  0  0  0  0  0  0
   -8.6506    2.9793   -9.7633 O   0  0  0  0  0  0  0  0  0  0  0  0
   -8.2707    4.0735  -10.5011 C   0  0  0  0  0  0  0  0  0  0  0  0
   -8.4064    3.9736  -11.8657 C   0  0  0  0  0  0  0  0  0  0  0  0
   -8.1715    5.1294  -12.5890 C   0  0  0  0  0  0  0  0  0  0  0  0
   -8.2809    5.1312  -14.0492 C   0  0  0  0  0  0  0  0  0  0  0  0
   -9.2630    5.4937  -14.5628 O   0  0  0  0  0  0  0  0  0  0  0  0
   -6.9292    4.7059  -14.6618 N   0  0  0  0  0  0  0  0  0  0  0  0
   -6.4977    4.7271  -15.9529 C   0  0  0  0  0  0  0  0  0  0  0  0
   -7.4576    4.9080  -17.0333 C   0  0  0  0  0  0  0  0  0  0  0  0
   -7.0068    5.2082  -18.2626 C   0  0  0  0  0  0  0  0  0  0  0  0
   -5.6373    5.2955  -18.4791 N   0  0  0  0  0  0  0  0  0  0  0  0
   -4.9303    5.7447  -19.5659 C   0  0  0  0  0  0  0  0  0  0  0  0
   -3.6037    5.5879  -19.2432 C   0  0  0  0  0  0  0  0  0  0  0  0
   -3.4640    5.0792  -17.9813 N   0  0  0  0  0  0  0  0  0  0  0  0
   -4.6919    4.9773  -17.5138 C   0  0  0  0  0  0  0  0  0  0  0  0
   -5.1728    4.6860  -16.2081 C   0  0  0  0  0  0  0  0  0  0  0  0
   -7.8118    6.3257  -11.9737 C   0  0  0  0  0  0  0  0  0  0  0  0
   -7.6736    6.3062  -10.6073 C   0  0  0  0  0  0  0  0  0  0  0  0
   -7.8800    5.2045   -9.8664 N   0  0  0  0  0  0  0  0  0  0  0  0
  1  2  1  0
  2  3  1  0
  2  4  1  0
  4  5  1  0
  5  6  2  0
  6  7  1  0
  7  8  1  0
  8  9  2  0
  8 10  1  0
 10 11  1  0
 11 12  1  0
 12 13  2  0
 13 14  1  0
 14 15  1  0
 15 16  2  0
 16 17  1  0
 17 18  2  0
 18 19  1  0
  7 20  2  0
 20 21  1  0
 21 22  2  0
 22  5  1  0
 19 11  2  0
 18 14  1  0
M  END
>  <inchikey>  (9) 
NHXYOVHVCFWWNV-UHFFFAOYSA-N

>  <alias>  (9) 
CC(C)Oc1cc(C(=O)Nc2ccn3ccnc3c2)ccn1

>  <tags>  (9) 
{'openbind_xx01zvns2b_c1_knitwork_pure', 'fragmenstein_placed'}

>  <HIPPO Pose ID>  (9) 
32236

>  <ref_pdb>  (9) 
71

>  <smiles>  (9) 
C48457-P84

>  <fragmenstein_runtime>  (9) 
9.273532

>  <fragmenstein_outcome>  (9) 
acceptable

>  <fragmenstein_mode>  (9) 
expansion

>  <fragmenstein_error>  (9) 


>  <HIPPO Compound ID>  (9) 
8707

>  <Energy>  (9) 
22.357842

>  <scratch_subdir>  (9) 
/opt/xchem-fragalysis-2/maxwin/BulkDock/SCRATCH/511030/C48457-P84

$$$$
Clc1cccc2nc(-c3c[nH]cn3)[nH]c12
     RDKit          3D

 15 17  0  0  0  0  0  0  0  0999 V2000
   -7.0998    5.0401  -14.5601 Cl  0  0  0  0  0  0  0  0  0  0  0  0
   -7.5841    4.6857  -16.1627 C   0  0  0  0  0  0  0  0  0  0  0  0
   -8.9024    4.3170  -16.4332 C   0  0  0  0  0  0  0  0  0  0  0  0
   -9.3316    4.0983  -17.7411 C   0  0  0  0  0  0  0  0  0  0  0  0
   -8.4361    4.2267  -18.8095 C   0  0  0  0  0  0  0  0  0  0  0  0
   -7.0961    4.5612  -18.5502 C   0  0  0  0  0  0  0  0  0  0  0  0
   -6.0284    4.7021  -19.4054 N   0  0  0  0  0  0  0  0  0  0  0  0
   -4.9804    4.9456  -18.6477 C   0  0  0  0  0  0  0  0  0  0  0  0
   -3.4861    5.0449  -19.1262 C   0  0  0  0  0  0  0  0  0  0  0  0
   -2.4182    5.1796  -18.2637 C   0  0  0  0  0  0  0  0  0  0  0  0
   -1.3036    5.1008  -19.0528 N   0  0  0  0  0  0  0  0  0  0  0  0
   -1.7196    4.9903  -20.3440 C   0  0  0  0  0  0  0  0  0  0  0  0
   -3.0302    4.9535  -20.4283 N   0  0  0  0  0  0  0  0  0  0  0  0
   -5.3619    5.0460  -17.3320 N   0  0  0  0  0  0  0  0  0  0  0  0
   -6.7024    4.7806  -17.2376 C   0  0  0  0  0  0  0  0  0  0  0  0
  1  2  1  0
  2  3  2  0
  3  4  1  0
  4  5  2  0
  5  6  1  0
  6  7  1  0
  7  8  2  0
  8  9  1  0
  9 10  2  0
 10 11  1  0
 11 12  1  0
 12 13  2  0
  8 14  1  0
 14 15  1  0
 15  2  1  0
 15  6  2  0
 13  9  1  0
M  END
>  <inchikey>  (10) 
WFMDOFMUTUXWGW-UHFFFAOYSA-N

>  <alias>  (10) 
Clc1cccc2nc(-c3c[nH]cn3)[nH]c12

>  <tags>  (10) 
{'openbind_xx01zvns2b_c1_knitwork_pure', 'fragmenstein_placed'}

>  <HIPPO Pose ID>  (10) 
32427

>  <ref_pdb>  (10) 
71

>  <smiles>  (10) 
C17133-P7

>  <fragmenstein_runtime>  (10) 
1.657651

>  <fragmenstein_outcome>  (10) 
acceptable

>  <fragmenstein_mode>  (10) 
expansion

>  <fragmenstein_error>  (10) 


>  <HIPPO Compound ID>  (10) 
13330

>  <Energy>  (10) 
13.173899

>  <scratch_subdir>  (10) 
/opt/xchem-fragalysis-2/maxwin/BulkDock/SCRATCH/511030/C17133-P7

$$$$
CN(Cc1c[nH]cn1)c1nc2c(F)cccc2[nH]1
     RDKit          3D

 18 20  0  0  0  0  0  0  0  0999 V2000
   -4.7993    7.0414  -20.5189 C   0  0  0  0  0  0  0  0  0  0  0  0
   -4.5929    6.1848  -19.3690 N   0  0  0  0  0  0  0  0  0  0  0  0
   -3.3662    6.3839  -18.6000 C   0  0  0  0  0  0  0  0  0  0  0  0
   -2.2553    5.5048  -19.0424 C   0  0  0  0  0  0  0  0  0  0  0  0
   -1.0220    5.8581  -19.5434 C   0  0  0  0  0  0  0  0  0  0  0  0
   -0.4388    4.6720  -19.8525 N   0  0  0  0  0  0  0  0  0  0  0  0
   -1.3169    3.6720  -19.5512 C   0  0  0  0  0  0  0  0  0  0  0  0
   -2.4211    4.1403  -19.0464 N   0  0  0  0  0  0  0  0  0  0  0  0
   -5.6317    5.6313  -18.7086 C   0  0  0  0  0  0  0  0  0  0  0  0
   -5.7863    5.5139  -17.4095 N   0  0  0  0  0  0  0  0  0  0  0  0
   -7.0284    4.9574  -17.2345 C   0  0  0  0  0  0  0  0  0  0  0  0
   -7.7569    4.6906  -16.0695 C   0  0  0  0  0  0  0  0  0  0  0  0
   -7.2721    4.9780  -14.8534 F   0  0  0  0  0  0  0  0  0  0  0  0
   -9.0590    4.2099  -16.1822 C   0  0  0  0  0  0  0  0  0  0  0  0
   -9.6452    4.0054  -17.4337 C   0  0  0  0  0  0  0  0  0  0  0  0
   -8.9291    4.2270  -18.6091 C   0  0  0  0  0  0  0  0  0  0  0  0
   -7.6295    4.7072  -18.4615 C   0  0  0  0  0  0  0  0  0  0  0  0
   -6.6908    5.0871  -19.3800 N   0  0  0  0  0  0  0  0  0  0  0  0
  1  2  1  0
  2  3  1  0
  3  4  1  0
  4  5  2  0
  5  6  1  0
  6  7  1  0
  7  8  2  0
  2  9  1  0
  9 10  2  0
 10 11  1  0
 11 12  2  0
 12 13  1  0
 12 14  1  0
 14 15  2  0
 15 16  1  0
 16 17  2  0
 17 18  1  0
  8  4  1  0
 18  9  1  0
 17 11  1  0
M  END
>  <inchikey>  (11) 
QXRQEBAHKXFVLD-UHFFFAOYSA-N

>  <alias>  (11) 
CN(Cc1c[nH]cn1)c1nc2c(F)cccc2[nH]1

>  <tags>  (11) 
{'openbind_xx01zvns2b_c1_knitwork_pure', 'fragmenstein_placed'}

>  <HIPPO Pose ID>  (11) 
32442

>  <ref_pdb>  (11) 
71

>  <smiles>  (11) 
C17160-P7

>  <fragmenstein_runtime>  (11) 
2.400592

>  <fragmenstein_outcome>  (11) 
acceptable

>  <fragmenstein_mode>  (11) 
expansion

>  <fragmenstein_error>  (11) 


>  <HIPPO Compound ID>  (11) 
6094

>  <Energy>  (11) 
31.752676

>  <scratch_subdir>  (11) 
/opt/xchem-fragalysis-2/maxwin/BulkDock/SCRATCH/511030/C17160-P7

$$$$
Cc1cc(C)c2nc(-c3c[nH]cn3)[nH]c2c1
     RDKit          3D

 16 18  0  0  0  0  0  0  0  0999 V2000
  -10.5253    3.9418  -17.9080 C   0  0  0  0  0  0  0  0  0  0  0  0
   -9.0881    4.2569  -17.6916 C   0  0  0  0  0  0  0  0  0  0  0  0
   -8.5813    4.4663  -16.4078 C   0  0  0  0  0  0  0  0  0  0  0  0
   -7.2338    4.8097  -16.1990 C   0  0  0  0  0  0  0  0  0  0  0  0
   -6.7706    5.0408  -14.7950 C   0  0  0  0  0  0  0  0  0  0  0  0
   -6.4023    4.9081  -17.3354 C   0  0  0  0  0  0  0  0  0  0  0  0
   -5.0563    5.1770  -17.4273 N   0  0  0  0  0  0  0  0  0  0  0  0
   -4.7649    5.0937  -18.7139 C   0  0  0  0  0  0  0  0  0  0  0  0
   -3.3117    5.1491  -19.2734 C   0  0  0  0  0  0  0  0  0  0  0  0
   -2.2138    5.2132  -18.4463 C   0  0  0  0  0  0  0  0  0  0  0  0
   -1.1349    5.1133  -19.2710 N   0  0  0  0  0  0  0  0  0  0  0  0
   -1.6018    5.0800  -20.5517 C   0  0  0  0  0  0  0  0  0  0  0  0
   -2.9187    5.0797  -20.5972 N   0  0  0  0  0  0  0  0  0  0  0  0
   -5.8895    4.8960  -19.4675 N   0  0  0  0  0  0  0  0  0  0  0  0
   -6.9359    4.6989  -18.6005 C   0  0  0  0  0  0  0  0  0  0  0  0
   -8.2643    4.3556  -18.8150 C   0  0  0  0  0  0  0  0  0  0  0  0
  1  2  1  0
  2  3  2  0
  3  4  1  0
  4  5  1  0
  4  6  2  0
  6  7  1  0
  7  8  2  0
  8  9  1  0
  9 10  2  0
 10 11  1  0
 11 12  1  0
 12 13  2  0
  8 14  1  0
 14 15  1  0
 15 16  2  0
 16  2  1  0
 15  6  1  0
 13  9  1  0
M  END
>  <inchikey>  (12) 
AJYXWVFXJSQKFI-UHFFFAOYSA-N

>  <alias>  (12) 
Cc1cc(C)c2nc(-c3c[nH]cn3)[nH]c2c1

>  <tags>  (12) 
{'openbind_xx01zvns2b_c1_knitwork_pure', 'fragmenstein_placed'}

>  <HIPPO Pose ID>  (12) 
32444

>  <ref_pdb>  (12) 
71

>  <smiles>  (12) 
C17163-P7

>  <fragmenstein_runtime>  (12) 
1.33239

>  <fragmenstein_outcome>  (12) 
acceptable

>  <fragmenstein_mode>  (12) 
expansion

>  <fragmenstein_error>  (12) 


>  <HIPPO Compound ID>  (12) 
55674

>  <Energy>  (12) 
18.099239

>  <scratch_subdir>  (12) 
/opt/xchem-fragalysis-2/maxwin/BulkDock/SCRATCH/511030/C17163-P7

$$$$
Cc1csc(CCN(C)Cc2cnn3c2CNCC3)n1
     RDKit          3D

 20 22  0  0  0  0  0  0  0  0999 V2000
   -6.0885    5.0777  -19.0707 C   0  0  0  0  0  0  0  0  0  0  0  0
   -7.0930    4.9297  -17.9933 C   0  0  0  0  0  0  0  0  0  0  0  0
   -8.3644    4.4096  -18.1213 C   0  0  0  0  0  0  0  0  0  0  0  0
   -9.1225    4.3608  -16.5914 S   0  0  0  0  0  0  0  0  0  0  0  0
   -7.7571    5.1355  -15.8872 C   0  0  0  0  0  0  0  0  0  0  0  0
   -7.7607    5.5795  -14.4480 C   0  0  0  0  0  0  0  0  0  0  0  0
   -6.8618    4.7048  -13.5375 C   0  0  0  0  0  0  0  0  0  0  0  0
   -7.3982    4.3294  -12.1990 N   0  0  0  0  0  0  0  0  0  0  0  0
   -8.5404    3.4495  -12.4145 C   0  0  0  0  0  0  0  0  0  0  0  0
   -7.7445    5.4833  -11.3687 C   0  0  0  0  0  0  0  0  0  0  0  0
   -8.0043    5.1959   -9.9082 C   0  0  0  0  0  0  0  0  0  0  0  0
   -8.3141    6.2271   -8.9726 C   0  0  0  0  0  0  0  0  0  0  0  0
   -8.5620    5.7817   -7.7398 N   0  0  0  0  0  0  0  0  0  0  0  0
   -8.4325    4.4519   -7.8731 N   0  0  0  0  0  0  0  0  0  0  0  0
   -8.0379    4.0469   -9.1217 C   0  0  0  0  0  0  0  0  0  0  0  0
   -7.8181    2.5920   -9.3751 C   0  0  0  0  0  0  0  0  0  0  0  0
   -7.6156    1.8388   -8.1332 N   0  0  0  0  0  0  0  0  0  0  0  0
   -8.6975    2.1186   -7.1884 C   0  0  0  0  0  0  0  0  0  0  0  0
   -8.6627    3.5739   -6.7396 C   0  0  0  0  0  0  0  0  0  0  0  0
   -6.7647    5.3686  -16.7195 N   0  0  0  0  0  0  0  0  0  0  0  0
  1  2  1  0
  2  3  2  0
  3  4  1  0
  4  5  1  0
  5  6  1  0
  6  7  1  0
  7  8  1  0
  8  9  1  0
  8 10  1  0
 10 11  1  0
 11 12  1  0
 12 13  2  0
 13 14  1  0
 14 15  1  0
 15 16  1  0
 16 17  1  0
 17 18  1  0
 18 19  1  0
  5 20  2  0
 20  2  1  0
 15 11  2  0
 19 14  1  0
M  END
>  <inchikey>  (13) 
UYICEVAEUWVKBW-UHFFFAOYSA-N

>  <alias>  (13) 
Cc1csc(CCN(C)Cc2cnn3c2CNCC3)n1

>  <tags>  (13) 
{'openbind_xx01zvns2b_c1_knitwork_pure', 'fragmenstein_placed'}

>  <HIPPO Pose ID>  (13) 
32520

>  <ref_pdb>  (13) 
71

>  <smiles>  (13) 
C6343-P43

>  <fragmenstein_runtime>  (13) 
2.849371

>  <fragmenstein_outcome>  (13) 
acceptable

>  <fragmenstein_mode>  (13) 
expansion

>  <fragmenstein_error>  (13) 


>  <HIPPO Compound ID>  (13) 
9898

>  <Energy>  (13) 
33.047856

>  <scratch_subdir>  (13) 
/opt/xchem-fragalysis-2/maxwin/BulkDock/SCRATCH/511030/C6343-P43

$$$$
Cc1csc([C@@H](C)CNC(=O)c2cnn3c2CNCC3)n1
     RDKit          3D

 21 23  0  0  0  0  0  0  0  0999 V2000
   -6.0874    5.0116  -19.1904 C   0  0  0  0  0  0  0  0  0  0  0  0
   -7.1018    4.8222  -18.1298 C   0  0  0  0  0  0  0  0  0  0  0  0
   -8.4010    4.3903  -18.2961 C   0  0  0  0  0  0  0  0  0  0  0  0
   -9.1620    4.2550  -16.7734 S   0  0  0  0  0  0  0  0  0  0  0  0
   -7.7494    4.8795  -16.0064 C   0  0  0  0  0  0  0  0  0  0  0  0
   -7.6765    5.2022  -14.5263 C   0  0  1  0  0  0  0  0  0  0  0  0
   -8.9423    5.8911  -14.0323 C   0  0  0  0  0  0  0  0  0  0  0  0
   -7.3275    3.9617  -13.6822 C   0  0  0  0  0  0  0  0  0  0  0  0
   -7.5681    4.1328  -12.2598 N   0  0  0  0  0  0  0  0  0  0  0  0
   -7.0591    5.2074  -11.2813 C   0  0  0  0  0  0  0  0  0  0  0  0
   -6.3052    6.0807  -11.4443 O   0  0  0  0  0  0  0  0  0  0  0  0
   -7.6733    5.0552   -9.9524 C   0  0  0  0  0  0  0  0  0  0  0  0
   -7.9345    6.1155   -9.0414 C   0  0  0  0  0  0  0  0  0  0  0  0
   -8.4612    5.7090   -7.8818 N   0  0  0  0  0  0  0  0  0  0  0  0
   -8.4833    4.3717   -8.0178 N   0  0  0  0  0  0  0  0  0  0  0  0
   -8.0718    3.9277   -9.2473 C   0  0  0  0  0  0  0  0  0  0  0  0
   -8.0796    2.4734   -9.5346 C   0  0  0  0  0  0  0  0  0  0  0  0
   -8.0449    1.6771   -8.3119 N   0  0  0  0  0  0  0  0  0  0  0  0
   -9.0859    2.0865   -7.3730 C   0  0  0  0  0  0  0  0  0  0  0  0
   -8.8391    3.5155   -6.8990 C   0  0  0  0  0  0  0  0  0  0  0  0
   -6.7470    5.1174  -16.8256 N   0  0  0  0  0  0  0  0  0  0  0  0
  1  2  1  0
  2  3  2  0
  3  4  1  0
  4  5  1  0
  5  6  1  0
  6  7  1  1
  6  8  1  0
  8  9  1  0
  9 10  1  0
 10 11  2  0
 10 12  1  0
 12 13  1  0
 13 14  2  0
 14 15  1  0
 15 16  1  0
 16 17  1  0
 17 18  1  0
 18 19  1  0
 19 20  1  0
  5 21  2  0
 21  2  1  0
 16 12  2  0
 20 15  1  0
M  END
>  <inchikey>  (14) 
JSONSBZVPVZGMP-UHFFFAOYSA-N

>  <alias>  (14) 
Cc1csc([C@@H](C)CNC(=O)c2cnn3c2CNCC3)n1

>  <tags>  (14) 
{'openbind_xx01zvns2b_c1_knitwork_pure', 'fragmenstein_placed'}

>  <HIPPO Pose ID>  (14) 
32523

>  <ref_pdb>  (14) 
71

>  <smiles>  (14) 
C6347-P43

>  <fragmenstein_runtime>  (14) 
3.559684

>  <fragmenstein_outcome>  (14) 
acceptable

>  <fragmenstein_mode>  (14) 
expansion

>  <fragmenstein_error>  (14) 


>  <HIPPO Compound ID>  (14) 
10692

>  <Energy>  (14) 
14.002367

>  <scratch_subdir>  (14) 
/opt/xchem-fragalysis-2/maxwin/BulkDock/SCRATCH/511030/C6347-P43

$$$$
Cc1csc(CCCCNS(=O)(=O)c2cnn3c2CNCC3)n1
     RDKit          3D

 23 25  0  0  0  0  0  0  0  0999 V2000
   -6.1659    5.0918  -19.3568 C   0  0  0  0  0  0  0  0  0  0  0  0
   -7.2696    4.8242  -18.4090 C   0  0  0  0  0  0  0  0  0  0  0  0
   -8.5716    4.4745  -18.7036 C   0  0  0  0  0  0  0  0  0  0  0  0
   -9.4402    4.1846  -17.2617 S   0  0  0  0  0  0  0  0  0  0  0  0
   -8.0207    4.5165  -16.3561 C   0  0  0  0  0  0  0  0  0  0  0  0
   -7.9644    4.2854  -14.8808 C   0  0  0  0  0  0  0  0  0  0  0  0
   -6.7760    4.9986  -14.2226 C   0  0  0  0  0  0  0  0  0  0  0  0
   -6.9770    6.4893  -13.9017 C   0  0  0  0  0  0  0  0  0  0  0  0
   -8.2273    6.8896  -13.1166 C   0  0  0  0  0  0  0  0  0  0  0  0
   -8.1508    6.7270  -11.6464 N   0  0  0  0  0  0  0  0  0  0  0  0
   -7.7077    5.2092  -11.0580 S   0  0  0  0  0  0  0  0  0  0  0  0
   -8.5327    4.2407  -11.7393 O   0  0  0  0  0  0  0  0  0  0  0  0
   -6.2645    5.1490  -11.0294 O   0  0  0  0  0  0  0  0  0  0  0  0
   -8.1439    5.0792   -9.4221 C   0  0  0  0  0  0  0  0  0  0  0  0
   -8.2062    6.1195   -8.4855 C   0  0  0  0  0  0  0  0  0  0  0  0
   -8.5818    5.6863   -7.2735 N   0  0  0  0  0  0  0  0  0  0  0  0
   -8.6905    4.3510   -7.4468 N   0  0  0  0  0  0  0  0  0  0  0  0
   -8.4608    3.9361   -8.7252 C   0  0  0  0  0  0  0  0  0  0  0  0
   -8.5840    2.5120   -9.1227 C   0  0  0  0  0  0  0  0  0  0  0  0
   -8.5564    1.6328   -7.9535 N   0  0  0  0  0  0  0  0  0  0  0  0
   -9.4352    2.1044   -6.8853 C   0  0  0  0  0  0  0  0  0  0  0  0
   -8.9961    3.4609   -6.3430 C   0  0  0  0  0  0  0  0  0  0  0  0
   -6.9891    4.9154  -17.0656 N   0  0  0  0  0  0  0  0  0  0  0  0
  1  2  1  0
  2  3  2  0
  3  4  1  0
  4  5  1  0
  5  6  1  0
  6  7  1  0
  7  8  1  0
  8  9  1  0
  9 10  1  0
 10 11  1  0
 11 12  2  0
 11 13  2  0
 11 14  1  0
 14 15  1  0
 15 16  2  0
 16 17  1  0
 17 18  1  0
 18 19  1  0
 19 20  1  0
 20 21  1  0
 21 22  1  0
  5 23  2  0
 23  2  1  0
 18 14  2  0
 22 17  1  0
M  END
>  <inchikey>  (15) 
RJVSPGCIRZLONR-UHFFFAOYSA-N

>  <alias>  (15) 
Cc1csc(CCCCNS(=O)(=O)c2cnn3c2CNCC3)n1

>  <tags>  (15) 
{'openbind_xx01zvns2b_c1_knitwork_pure', 'fragmenstein_placed'}

>  <HIPPO Pose ID>  (15) 
32525

>  <ref_pdb>  (15) 
71

>  <smiles>  (15) 
C6351-P43

>  <fragmenstein_runtime>  (15) 
3.726502

>  <fragmenstein_outcome>  (15) 
acceptable

>  <fragmenstein_mode>  (15) 
expansion

>  <fragmenstein_error>  (15) 


>  <HIPPO Compound ID>  (15) 
50969

>  <Energy>  (15) 
-46.310714

>  <scratch_subdir>  (15) 
/opt/xchem-fragalysis-2/maxwin/BulkDock/SCRATCH/511030/C6351-P43

$$$$
CN(Cc1cnn2c1CNCC2)S(=O)(=O)c1nc(Br)cs1
     RDKit          3D

 21 23  0  0  0  0  0  0  0  0999 V2000
   -6.4975    4.3389  -12.8481 C   0  0  0  0  0  0  0  0  0  0  0  0
   -7.8677    4.8896  -12.7080 N   0  0  0  0  0  0  0  0  0  0  0  0
   -7.9412    5.8790  -11.5760 C   0  0  0  0  0  0  0  0  0  0  0  0
   -8.1320    5.3947  -10.1750 C   0  0  0  0  0  0  0  0  0  0  0  0
   -8.2497    6.3119   -9.0851 C   0  0  0  0  0  0  0  0  0  0  0  0
   -8.4410    5.7275   -7.9041 N   0  0  0  0  0  0  0  0  0  0  0  0
   -8.4333    4.4214   -8.2166 N   0  0  0  0  0  0  0  0  0  0  0  0
   -8.2684    4.1646   -9.5569 C   0  0  0  0  0  0  0  0  0  0  0  0
   -8.2921    2.7612  -10.0255 C   0  0  0  0  0  0  0  0  0  0  0  0
   -7.8784    1.8637   -8.9412 N   0  0  0  0  0  0  0  0  0  0  0  0
   -8.7389    2.0343   -7.7685 C   0  0  0  0  0  0  0  0  0  0  0  0
   -8.5441    3.4205   -7.1703 C   0  0  0  0  0  0  0  0  0  0  0  0
   -8.3967    5.7236  -14.1425 S   0  0  0  0  0  0  0  0  0  0  0  0
   -9.8365    5.8653  -14.0301 O   0  0  0  0  0  0  0  0  0  0  0  0
   -7.5847    6.9292  -14.2126 O   0  0  0  0  0  0  0  0  0  0  0  0
   -8.0581    4.9099  -15.7112 C   0  0  0  0  0  0  0  0  0  0  0  0
   -6.9037    5.0043  -16.3514 N   0  0  0  0  0  0  0  0  0  0  0  0
   -7.1059    4.7162  -17.6855 C   0  0  0  0  0  0  0  0  0  0  0  0
   -5.7100    4.9419  -18.9383 Br  0  0  0  0  0  0  0  0  0  0  0  0
   -8.3742    4.3203  -18.0404 C   0  0  0  0  0  0  0  0  0  0  0  0
   -9.3534    4.2881  -16.6403 S   0  0  0  0  0  0  0  0  0  0  0  0
  1  2  1  0
  2  3  1  0
  3  4  1  0
  4  5  1  0
  5  6  2  0
  6  7  1  0
  7  8  1  0
  8  9  1  0
  9 10  1  0
 10 11  1  0
 11 12  1  0
  2 13  1  0
 13 14  2  0
 13 15  2  0
 13 16  1  0
 16 17  2  0
 17 18  1  0
 18 19  1  0
 18 20  2  0
 20 21  1  0
  8  4  2  0
 21 16  1  0
 12  7  1  0
M  END
>  <inchikey>  (16) 
XRVRHIHXYCKWGE-UHFFFAOYSA-N

>  <alias>  (16) 
CN(Cc1cnn2c1CNCC2)S(=O)(=O)c1nc(Br)cs1

>  <tags>  (16) 
{'openbind_xx01zvns2b_c1_knitwork_pure', 'fragmenstein_placed'}

>  <HIPPO Pose ID>  (16) 
32533

>  <ref_pdb>  (16) 
71

>  <smiles>  (16) 
C6365-P43

>  <fragmenstein_runtime>  (16) 
1.408625

>  <fragmenstein_outcome>  (16) 
acceptable

>  <fragmenstein_mode>  (16) 
expansion

>  <fragmenstein_error>  (16) 


>  <HIPPO Compound ID>  (16) 
12944

>  <Energy>  (16) 
10.819008

>  <scratch_subdir>  (16) 
/opt/xchem-fragalysis-2/maxwin/BulkDock/SCRATCH/511030/C6365-P43

$$$$
Cc1csc(CCC(=O)N=[S@@](C)(=O)c2cnn3c2CNCC3)n1
     RDKit          3D

 23 25  0  0  0  0  0  0  0  0999 V2000
   -6.1312    5.0812  -19.1733 C   0  0  0  0  0  0  0  0  0  0  0  0
   -7.2964    4.8152  -18.3004 C   0  0  0  0  0  0  0  0  0  0  0  0
   -8.5546    4.4083  -18.6946 C   0  0  0  0  0  0  0  0  0  0  0  0
   -9.5509    4.1815  -17.3292 S   0  0  0  0  0  0  0  0  0  0  0  0
   -8.2480    4.6389  -16.3145 C   0  0  0  0  0  0  0  0  0  0  0  0
   -8.3650    4.6469  -14.8259 C   0  0  0  0  0  0  0  0  0  0  0  0
   -7.3630    3.6831  -14.2010 C   0  0  0  0  0  0  0  0  0  0  0  0
   -6.5831    4.3927  -13.1284 C   0  0  0  0  0  0  0  0  0  0  0  0
   -5.5258    4.9603  -13.3923 O   0  0  0  0  0  0  0  0  0  0  0  0
   -7.1315    4.4187  -11.8478 N   0  0  0  0  0  0  0  0  0  0  0  0
   -7.5401    5.7495  -11.2258 S   0  0  1  0  0  0  0  0  0  0  0  0
   -6.0826    6.7164  -10.9013 C   0  0  0  0  0  0  0  0  0  0  0  0
   -8.5739    6.6353  -11.7204 O   0  0  0  0  0  0  0  0  0  0  0  0
   -8.0521    5.2988   -9.6510 C   0  0  0  0  0  0  0  0  0  0  0  0
   -8.3689    6.2278   -8.6393 C   0  0  0  0  0  0  0  0  0  0  0  0
   -8.6855    5.6424   -7.4786 N   0  0  0  0  0  0  0  0  0  0  0  0
   -8.5929    4.3270   -7.7695 N   0  0  0  0  0  0  0  0  0  0  0  0
   -8.2244    4.0622   -9.0607 C   0  0  0  0  0  0  0  0  0  0  0  0
   -8.1165    2.6613   -9.5418 C   0  0  0  0  0  0  0  0  0  0  0  0
   -8.0445    1.7166   -8.4223 N   0  0  0  0  0  0  0  0  0  0  0  0
   -9.0873    1.9626   -7.4314 C   0  0  0  0  0  0  0  0  0  0  0  0
   -8.8662    3.3160   -6.7641 C   0  0  0  0  0  0  0  0  0  0  0  0
   -7.1446    4.9874  -16.9389 N   0  0  0  0  0  0  0  0  0  0  0  0
  1  2  1  0
  2  3  2  0
  3  4  1  0
  4  5  1  0
  5  6  1  0
  6  7  1  0
  7  8  1  0
  8  9  2  0
  8 10  1  0
 10 11  2  0
 11 12  1  1
 11 13  2  0
 11 14  1  0
 14 15  1  0
 15 16  2  0
 16 17  1  0
 17 18  1  0
 18 19  1  0
 19 20  1  0
 20 21  1  0
 21 22  1  0
  5 23  2  0
 23  2  1  0
 18 14  2  0
 22 17  1  0
M  END
>  <inchikey>  (17) 
NTLOWMBSORENDV-UHFFFAOYSA-N

>  <alias>  (17) 
Cc1csc(CCC(=O)N=[S@@](C)(=O)c2cnn3c2CNCC3)n1

>  <tags>  (17) 
{'openbind_xx01zvns2b_c1_knitwork_pure', 'fragmenstein_placed'}

>  <HIPPO Pose ID>  (17) 
32536

>  <ref_pdb>  (17) 
71

>  <smiles>  (17) 
C6372-P43

>  <fragmenstein_runtime>  (17) 
4.713483

>  <fragmenstein_outcome>  (17) 
acceptable

>  <fragmenstein_mode>  (17) 
expansion

>  <fragmenstein_error>  (17) 


>  <HIPPO Compound ID>  (17) 
51218

>  <Energy>  (17) 
-53.29516

>  <scratch_subdir>  (17) 
/opt/xchem-fragalysis-2/maxwin/BulkDock/SCRATCH/511030/C6372-P43

$$$$
CCc1csc(CCNCc2cnn3c2CNCC3)n1
     RDKit          3D

 20 22  0  0  0  0  0  0  0  0999 V2000
   -5.5805    6.6382  -18.6972 C   0  0  0  0  0  0  0  0  0  0  0  0
   -5.9430    5.1652  -18.7467 C   0  0  0  0  0  0  0  0  0  0  0  0
   -7.1625    4.8651  -17.9496 C   0  0  0  0  0  0  0  0  0  0  0  0
   -8.4062    4.5404  -18.4500 C   0  0  0  0  0  0  0  0  0  0  0  0
   -9.4756    4.2039  -17.1711 S   0  0  0  0  0  0  0  0  0  0  0  0
   -8.2119    4.4995  -16.0341 C   0  0  0  0  0  0  0  0  0  0  0  0
   -8.4389    4.2088  -14.5816 C   0  0  0  0  0  0  0  0  0  0  0  0
   -7.7228    5.1341  -13.6003 C   0  0  0  0  0  0  0  0  0  0  0  0
   -8.0404    4.7260  -12.2181 N   0  0  0  0  0  0  0  0  0  0  0  0
   -7.4287    5.6084  -11.2371 C   0  0  0  0  0  0  0  0  0  0  0  0
   -7.9243    5.3166   -9.8574 C   0  0  0  0  0  0  0  0  0  0  0  0
   -8.2641    6.2891   -8.8785 C   0  0  0  0  0  0  0  0  0  0  0  0
   -8.6247    5.7610   -7.7054 N   0  0  0  0  0  0  0  0  0  0  0  0
   -8.5393    4.4383   -7.9315 N   0  0  0  0  0  0  0  0  0  0  0  0
   -8.1060    4.1165   -9.1888 C   0  0  0  0  0  0  0  0  0  0  0  0
   -7.9400    2.6917   -9.5770 C   0  0  0  0  0  0  0  0  0  0  0  0
   -7.7428    1.8473   -8.3922 N   0  0  0  0  0  0  0  0  0  0  0  0
   -8.8217    2.0616   -7.4220 C   0  0  0  0  0  0  0  0  0  0  0  0
   -8.7997    3.4834   -6.8693 C   0  0  0  0  0  0  0  0  0  0  0  0
   -7.0724    4.8889  -16.5642 N   0  0  0  0  0  0  0  0  0  0  0  0
  1  2  1  0
  2  3  1  0
  3  4  2  0
  4  5  1  0
  5  6  1  0
  6  7  1  0
  7  8  1  0
  8  9  1  0
  9 10  1  0
 10 11  1  0
 11 12  1  0
 12 13  2  0
 13 14  1  0
 14 15  1  0
 15 16  1  0
 16 17  1  0
 17 18  1  0
 18 19  1  0
  6 20  2  0
 20  3  1  0
 15 11  2  0
 19 14  1  0
M  END
>  <inchikey>  (18) 
RFQOHBTZGUQNGR-UHFFFAOYSA-N

>  <alias>  (18) 
CCc1csc(CCNCc2cnn3c2CNCC3)n1

>  <tags>  (18) 
{'openbind_xx01zvns2b_c1_knitwork_pure', 'fragmenstein_placed'}

>  <HIPPO Pose ID>  (18) 
32540

>  <ref_pdb>  (18) 
71

>  <smiles>  (18) 
C6379-P43

>  <fragmenstein_runtime>  (18) 
2.132777

>  <fragmenstein_outcome>  (18) 
acceptable

>  <fragmenstein_mode>  (18) 
expansion

>  <fragmenstein_error>  (18) 


>  <HIPPO Compound ID>  (18) 
50099

>  <Energy>  (18) 
8.956038

>  <scratch_subdir>  (18) 
/opt/xchem-fragalysis-2/maxwin/BulkDock/SCRATCH/511030/C6379-P43

$$$$
C[C@H](COC(=O)c1cc(Cl)c2[nH]c(=O)[nH]c2c1)c1ccccn1
     RDKit          3D

 23 25  0  0  0  0  0  0  0  0999 V2000
   -6.7590    2.5153  -10.8744 C   0  0  0  0  0  0  0  0  0  0  0  0
   -8.1451    3.1662  -10.8166 C   0  0  2  0  0  0  0  0  0  0  0  0
   -8.1226    4.5042  -11.5782 C   0  0  0  0  0  0  0  0  0  0  0  0
   -8.1377    4.2944  -13.0068 O   0  0  0  0  0  0  0  0  0  0  0  0
   -7.1046    4.8186  -13.7046 C   0  0  0  0  0  0  0  0  0  0  0  0
   -6.1231    5.3891  -13.2565 O   0  0  0  0  0  0  0  0  0  0  0  0
   -7.3174    4.6434  -15.1645 C   0  0  0  0  0  0  0  0  0  0  0  0
   -8.5934    4.3560  -15.7097 C   0  0  0  0  0  0  0  0  0  0  0  0
   -8.7657    4.2388  -17.0919 C   0  0  0  0  0  0  0  0  0  0  0  0
  -10.3236    4.1064  -17.7871 Cl  0  0  0  0  0  0  0  0  0  0  0  0
   -7.6502    4.3481  -17.8859 C   0  0  0  0  0  0  0  0  0  0  0  0
   -7.4999    4.2177  -19.2617 N   0  0  0  0  0  0  0  0  0  0  0  0
   -6.1650    4.4540  -19.6011 C   0  0  0  0  0  0  0  0  0  0  0  0
   -5.6592    4.3949  -20.7091 O   0  0  0  0  0  0  0  0  0  0  0  0
   -5.4971    4.7471  -18.4004 N   0  0  0  0  0  0  0  0  0  0  0  0
   -6.4061    4.6580  -17.3517 C   0  0  0  0  0  0  0  0  0  0  0  0
   -6.2066    4.8298  -16.0037 C   0  0  0  0  0  0  0  0  0  0  0  0
   -8.5322    3.3742   -9.3653 C   0  0  0  0  0  0  0  0  0  0  0  0
   -9.0056    2.3104   -8.5995 C   0  0  0  0  0  0  0  0  0  0  0  0
   -9.2564    2.5156   -7.2470 C   0  0  0  0  0  0  0  0  0  0  0  0
   -9.0288    3.7696   -6.6964 C   0  0  0  0  0  0  0  0  0  0  0  0
   -8.5629    4.7741   -7.5263 C   0  0  0  0  0  0  0  0  0  0  0  0
   -8.3161    4.6083   -8.8380 N   0  0  0  0  0  0  0  0  0  0  0  0
  2  1  1  1
  2  3  1  0
  3  4  1  0
  4  5  1  0
  5  6  2  0
  5  7  1  0
  7  8  2  0
  8  9  1  0
  9 10  1  0
  9 11  2  0
 11 12  1  0
 12 13  1  0
 13 14  2  0
 13 15  1  0
 15 16  1  0
 16 17  2  0
  2 18  1  0
 18 19  2  0
 19 20  1  0
 20 21  2  0
 21 22  1  0
 22 23  2  0
 17  7  1  0
 23 18  1  0
 16 11  1  0
M  END
>  <inchikey>  (19) 
BBARJJMBGWNGCC-UHFFFAOYSA-N

>  <alias>  (19) 
C[C@H](COC(=O)c1cc(Cl)c2[nH]c(=O)[nH]c2c1)c1ccccn1

>  <tags>  (19) 
{'openbind_xx01zvns2b_c1_knitwork_pure', 'fragmenstein_placed'}

>  <HIPPO Pose ID>  (19) 
32672

>  <ref_pdb>  (19) 
71

>  <smiles>  (19) 
C48901-P268

>  <fragmenstein_runtime>  (19) 
3.499755

>  <fragmenstein_outcome>  (19) 
acceptable

>  <fragmenstein_mode>  (19) 
expansion

>  <fragmenstein_error>  (19) 


>  <HIPPO Compound ID>  (19) 
52617

>  <Energy>  (19) 
1.431289

>  <scratch_subdir>  (19) 
/opt/xchem-fragalysis-2/maxwin/BulkDock/SCRATCH/511030/C48901-P268

$$$$
O=[N+]([O-])c1cccc2ncnc(N[C@@H]3CCCNC3)c12
     RDKit          3D

 20 22  0  0  0  0  0  0  0  0999 V2000
   -4.6505    6.9685  -18.7279 O   0  0  0  0  0  0  0  0  0  0  0  0
   -4.7089    5.7318  -18.6893 N   0  0  0  0  0  0  0  0  0  0  0  0
   -3.8088    4.9527  -19.0411 O   0  0  0  0  0  0  0  0  0  0  0  0
   -5.9473    5.1374  -18.2524 C   0  0  0  0  0  0  0  0  0  0  0  0
   -6.7659    4.6486  -19.2714 C   0  0  0  0  0  0  0  0  0  0  0  0
   -8.0159    4.1586  -18.9422 C   0  0  0  0  0  0  0  0  0  0  0  0
   -8.4057    4.1295  -17.6054 C   0  0  0  0  0  0  0  0  0  0  0  0
   -7.5776    4.5683  -16.5792 C   0  0  0  0  0  0  0  0  0  0  0  0
   -8.0692    4.4873  -15.3428 N   0  0  0  0  0  0  0  0  0  0  0  0
   -7.2959    4.9177  -14.3493 C   0  0  0  0  0  0  0  0  0  0  0  0
   -6.0944    5.4778  -14.4873 N   0  0  0  0  0  0  0  0  0  0  0  0
   -5.6088    5.5553  -15.7372 C   0  0  0  0  0  0  0  0  0  0  0  0
   -4.4064    6.2509  -15.7947 N   0  0  0  0  0  0  0  0  0  0  0  0
   -3.1592    5.4710  -15.9067 C   0  0  2  0  0  0  0  0  0  0  0  0
   -2.7023    4.9556  -14.5263 C   0  0  0  0  0  0  0  0  0  0  0  0
   -1.4835    5.7110  -14.0040 C   0  0  0  0  0  0  0  0  0  0  0  0
   -0.3385    5.6861  -15.0188 C   0  0  0  0  0  0  0  0  0  0  0  0
   -0.7178    6.0304  -16.3871 N   0  0  0  0  0  0  0  0  0  0  0  0
   -2.1066    6.4386  -16.5209 C   0  0  0  0  0  0  0  0  0  0  0  0
   -6.3100    5.0936  -16.8750 C   0  0  0  0  0  0  0  0  0  0  0  0
  1  2  2  0
  2  3  1  0
  2  4  1  0
  4  5  2  0
  5  6  1  0
  6  7  2  0
  7  8  1  0
  8  9  2  0
  9 10  1  0
 10 11  2  0
 11 12  1  0
 12 13  1  0
 14 13  1  1
 14 15  1  0
 15 16  1  0
 16 17  1  0
 17 18  1  0
 18 19  1  0
 12 20  2  0
 20  4  1  0
 20  8  1  0
 19 14  1  0
M  CHG  2   2   1   3  -1
M  END
>  <inchikey>  (20) 
XGMUYUWJAQFZKN-UHFFFAOYSA-N

>  <alias>  (20) 
O=[N+]([O-])c1cccc2ncnc(N[C@@H]3CCCNC3)c12

>  <tags>  (20) 
{'openbind_xx01zvns2b_c1_knitwork_pure', 'fragmenstein_placed'}

>  <HIPPO Pose ID>  (20) 
32795

>  <ref_pdb>  (20) 
71

>  <smiles>  (20) 
C9033-P95

>  <fragmenstein_runtime>  (20) 
1.827818

>  <fragmenstein_outcome>  (20) 
acceptable

>  <fragmenstein_mode>  (20) 
expansion

>  <fragmenstein_error>  (20) 


>  <HIPPO Compound ID>  (20) 
51629

>  <Energy>  (20) 
22.97173

>  <scratch_subdir>  (20) 
/opt/xchem-fragalysis-2/maxwin/BulkDock/SCRATCH/511030/C9033-P95

$$$$
O=[N+]([O-])c1cccc2ncnc(NC[C@@H]3CCCNC3)c12
     RDKit          3D

 21 23  0  0  0  0  0  0  0  0999 V2000
   -4.5868    6.9386  -18.6837 O   0  0  0  0  0  0  0  0  0  0  0  0
   -4.6677    5.7016  -18.6683 N   0  0  0  0  0  0  0  0  0  0  0  0
   -3.7911    4.9137  -19.0522 O   0  0  0  0  0  0  0  0  0  0  0  0
   -5.9204    5.1207  -18.2456 C   0  0  0  0  0  0  0  0  0  0  0  0
   -6.7483    4.6555  -19.2671 C   0  0  0  0  0  0  0  0  0  0  0  0
   -8.0081    4.1852  -18.9397 C   0  0  0  0  0  0  0  0  0  0  0  0
   -8.4035    4.1604  -17.6031 C   0  0  0  0  0  0  0  0  0  0  0  0
   -7.5689    4.5817  -16.5743 C   0  0  0  0  0  0  0  0  0  0  0  0
   -8.0543    4.5201  -15.3325 N   0  0  0  0  0  0  0  0  0  0  0  0
   -7.2593    4.9283  -14.3446 C   0  0  0  0  0  0  0  0  0  0  0  0
   -6.0356    5.4401  -14.4875 N   0  0  0  0  0  0  0  0  0  0  0  0
   -5.5646    5.5010  -15.7437 C   0  0  0  0  0  0  0  0  0  0  0  0
   -4.3170    6.1239  -15.8393 N   0  0  0  0  0  0  0  0  0  0  0  0
   -3.1738    5.2075  -15.7006 C   0  0  0  0  0  0  0  0  0  0  0  0
   -1.8909    6.0604  -15.8324 C   0  0  2  0  0  0  0  0  0  0  0  0
   -1.3738    6.1061  -17.2797 C   0  0  0  0  0  0  0  0  0  0  0  0
    0.1270    6.3950  -17.3539 C   0  0  0  0  0  0  0  0  0  0  0  0
    0.6123    7.1731  -16.1382 C   0  0  0  0  0  0  0  0  0  0  0  0
    0.4085    6.4456  -14.8830 N   0  0  0  0  0  0  0  0  0  0  0  0
   -0.7935    5.6075  -14.8616 C   0  0  0  0  0  0  0  0  0  0  0  0
   -6.2906    5.0729  -16.8739 C   0  0  0  0  0  0  0  0  0  0  0  0
  1  2  2  0
  2  3  1  0
  2  4  1  0
  4  5  2  0
  5  6  1  0
  6  7  2  0
  7  8  1  0
  8  9  2  0
  9 10  1  0
 10 11  2  0
 11 12  1  0
 12 13  1  0
 13 14  1  0
 15 14  1  6
 15 16  1  0
 16 17  1  0
 17 18  1  0
 18 19  1  0
 19 20  1  0
 12 21  2  0
 21  4  1  0
 21  8  1  0
 20 15  1  0
M  CHG  2   2   1   3  -1
M  END
>  <inchikey>  (21) 
WCEVNUGQRFCTPA-UHFFFAOYSA-N

>  <alias>  (21) 
O=[N+]([O-])c1cccc2ncnc(NC[C@@H]3CCCNC3)c12

>  <tags>  (21) 
{'openbind_xx01zvns2b_c1_knitwork_pure', 'fragmenstein_placed'}

>  <HIPPO Pose ID>  (21) 
32796

>  <ref_pdb>  (21) 
71

>  <smiles>  (21) 
C9034-P95

>  <fragmenstein_runtime>  (21) 
2.284163

>  <fragmenstein_outcome>  (21) 
acceptable

>  <fragmenstein_mode>  (21) 
expansion

>  <fragmenstein_error>  (21) 


>  <HIPPO Compound ID>  (21) 
14273

>  <Energy>  (21) 
-1.95997

>  <scratch_subdir>  (21) 
/opt/xchem-fragalysis-2/maxwin/BulkDock/SCRATCH/511030/C9034-P95

$$$$
COc1cccc2c(NC[C@H]3CCCNC3)ncnc12
     RDKit          3D

 20 22  0  0  0  0  0  0  0  0999 V2000
  -10.3195    3.9568  -18.1501 C   0  0  0  0  0  0  0  0  0  0  0  0
   -9.4044    4.1027  -17.0877 O   0  0  0  0  0  0  0  0  0  0  0  0
   -8.1214    4.4432  -17.4501 C   0  0  0  0  0  0  0  0  0  0  0  0
   -7.6746    4.5040  -18.7779 C   0  0  0  0  0  0  0  0  0  0  0  0
   -6.3937    4.9451  -19.0627 C   0  0  0  0  0  0  0  0  0  0  0  0
   -5.5651    5.3180  -18.0182 C   0  0  0  0  0  0  0  0  0  0  0  0
   -5.9874    5.2087  -16.6694 C   0  0  0  0  0  0  0  0  0  0  0  0
   -5.2163    5.5624  -15.5508 C   0  0  0  0  0  0  0  0  0  0  0  0
   -3.9363    6.1199  -15.6503 N   0  0  0  0  0  0  0  0  0  0  0  0
   -2.8949    5.1911  -16.0786 C   0  0  0  0  0  0  0  0  0  0  0  0
   -1.6909    5.9790  -16.6290 C   0  0  1  0  0  0  0  0  0  0  0  0
   -2.0322    6.7980  -17.8857 C   0  0  0  0  0  0  0  0  0  0  0  0
   -0.9905    7.8845  -18.1696 C   0  0  0  0  0  0  0  0  0  0  0  0
    0.3427    7.5979  -17.4881 C   0  0  0  0  0  0  0  0  0  0  0  0
    0.2191    7.4970  -16.0332 N   0  0  0  0  0  0  0  0  0  0  0  0
   -1.0274    6.8734  -15.5739 C   0  0  0  0  0  0  0  0  0  0  0  0
   -5.6552    5.4767  -14.2856 N   0  0  0  0  0  0  0  0  0  0  0  0
   -6.9012    5.0269  -14.1332 C   0  0  0  0  0  0  0  0  0  0  0  0
   -7.7352    4.6913  -15.1126 N   0  0  0  0  0  0  0  0  0  0  0  0
   -7.2816    4.7679  -16.3782 C   0  0  0  0  0  0  0  0  0  0  0  0
  1  2  1  0
  2  3  1  0
  3  4  2  0
  4  5  1  0
  5  6  2  0
  6  7  1  0
  7  8  2  0
  8  9  1  0
  9 10  1  0
 11 10  1  1
 11 12  1  0
 12 13  1  0
 13 14  1  0
 14 15  1  0
 15 16  1  0
  8 17  1  0
 17 18  2  0
 18 19  1  0
 19 20  2  0
 20  3  1  0
 20  7  1  0
 16 11  1  0
M  END
>  <inchikey>  (22) 
NYVMWOPWLRUMMH-UHFFFAOYSA-N

>  <alias>  (22) 
COc1cccc2c(NC[C@H]3CCCNC3)ncnc12

>  <tags>  (22) 
{'openbind_xx01zvns2b_c1_knitwork_pure', 'fragmenstein_placed'}

>  <HIPPO Pose ID>  (22) 
32798

>  <ref_pdb>  (22) 
71

>  <smiles>  (22) 
C9037-P95

>  <fragmenstein_runtime>  (22) 
2.501413

>  <fragmenstein_outcome>  (22) 
acceptable

>  <fragmenstein_mode>  (22) 
expansion

>  <fragmenstein_error>  (22) 


>  <HIPPO Compound ID>  (22) 
14910

>  <Energy>  (22) 
17.986415

>  <scratch_subdir>  (22) 
/opt/xchem-fragalysis-2/maxwin/BulkDock/SCRATCH/511030/C9037-P95

$$$$
CNc1nc(N[C@H]2CCCNC2)nc2ccccc12
     RDKit          3D

 19 21  0  0  0  0  0  0  0  0999 V2000
   -2.8824    5.1259  -15.1753 C   0  0  0  0  0  0  0  0  0  0  0  0
   -3.7929    5.2784  -16.2942 N   0  0  0  0  0  0  0  0  0  0  0  0
   -5.1386    4.9547  -15.9771 C   0  0  0  0  0  0  0  0  0  0  0  0
   -5.4657    4.7341  -14.6966 N   0  0  0  0  0  0  0  0  0  0  0  0
   -6.7233    4.3739  -14.4335 C   0  0  0  0  0  0  0  0  0  0  0  0
   -6.9431    3.9721  -13.1324 N   0  0  0  0  0  0  0  0  0  0  0  0
   -8.2161    4.3558  -12.5409 C   0  0  1  0  0  0  0  0  0  0  0  0
   -8.3890    3.5596  -11.2352 C   0  0  0  0  0  0  0  0  0  0  0  0
   -8.1136    4.4057   -9.9935 C   0  0  0  0  0  0  0  0  0  0  0  0
   -6.9616    5.3816  -10.2156 C   0  0  0  0  0  0  0  0  0  0  0  0
   -7.1453    6.3067  -11.3397 N   0  0  0  0  0  0  0  0  0  0  0  0
   -8.2027    5.8792  -12.2665 C   0  0  0  0  0  0  0  0  0  0  0  0
   -7.7074    4.3320  -15.3305 N   0  0  0  0  0  0  0  0  0  0  0  0
   -7.3771    4.5121  -16.6078 C   0  0  0  0  0  0  0  0  0  0  0  0
   -8.3468    4.3126  -17.5796 C   0  0  0  0  0  0  0  0  0  0  0  0
   -8.0408    4.3933  -18.9368 C   0  0  0  0  0  0  0  0  0  0  0  0
   -6.7491    4.7150  -19.3336 C   0  0  0  0  0  0  0  0  0  0  0  0
   -5.7794    4.9811  -18.3806 C   0  0  0  0  0  0  0  0  0  0  0  0
   -6.0785    4.8440  -17.0087 C   0  0  0  0  0  0  0  0  0  0  0  0
  1  2  1  0
  2  3  1  0
  3  4  2  0
  4  5  1  0
  5  6  1  0
  7  6  1  1
  7  8  1  0
  8  9  1  0
  9 10  1  0
 10 11  1  0
 11 12  1  0
  5 13  2  0
 13 14  1  0
 14 15  2  0
 15 16  1  0
 16 17  2  0
 17 18  1  0
 18 19  2  0
 19  3  1  0
 12  7  1  0
 19 14  1  0
M  END
>  <inchikey>  (23) 
UGAFEXADVKEYET-UHFFFAOYSA-N

>  <alias>  (23) 
CNc1nc(N[C@H]2CCCNC2)nc2ccccc12

>  <tags>  (23) 
{'openbind_xx01zvns2b_c1_knitwork_pure', 'fragmenstein_placed'}

>  <HIPPO Pose ID>  (23) 
32799

>  <ref_pdb>  (23) 
71

>  <smiles>  (23) 
C9039-P95

>  <fragmenstein_runtime>  (23) 
2.036933

>  <fragmenstein_outcome>  (23) 
acceptable

>  <fragmenstein_mode>  (23) 
expansion

>  <fragmenstein_error>  (23) 


>  <HIPPO Compound ID>  (23) 
3924

>  <Energy>  (23) 
-64.207493

>  <scratch_subdir>  (23) 
/opt/xchem-fragalysis-2/maxwin/BulkDock/SCRATCH/511030/C9039-P95

$$$$
CN(C)c1nc(NC[C@@H]2CCCNC2)c2ccccc2n1
     RDKit          3D

 21 23  0  0  0  0  0  0  0  0999 V2000
   -8.2761    3.6255  -12.6275 C   0  0  0  0  0  0  0  0  0  0  0  0
   -7.2215    4.5898  -12.8870 N   0  0  0  0  0  0  0  0  0  0  0  0
   -7.2977    5.8375  -12.1508 C   0  0  0  0  0  0  0  0  0  0  0  0
   -6.9718    4.8139  -14.2436 C   0  0  0  0  0  0  0  0  0  0  0  0
   -5.8099    5.3980  -14.5592 N   0  0  0  0  0  0  0  0  0  0  0  0
   -5.5013    5.5319  -15.8562 C   0  0  0  0  0  0  0  0  0  0  0  0
   -4.3012    6.1924  -16.1511 N   0  0  0  0  0  0  0  0  0  0  0  0
   -3.1113    5.4851  -15.7026 C   0  0  0  0  0  0  0  0  0  0  0  0
   -1.8821    6.2398  -16.2456 C   0  0  2  0  0  0  0  0  0  0  0  0
   -1.6811    5.9714  -17.7484 C   0  0  0  0  0  0  0  0  0  0  0  0
   -0.3659    6.5681  -18.2432 C   0  0  0  0  0  0  0  0  0  0  0  0
    0.8060    6.1548  -17.3579 C   0  0  0  0  0  0  0  0  0  0  0  0
    0.5814    6.5282  -15.9606 N   0  0  0  0  0  0  0  0  0  0  0  0
   -0.6282    5.8917  -15.4306 C   0  0  0  0  0  0  0  0  0  0  0  0
   -6.3302    5.0632  -16.8817 C   0  0  0  0  0  0  0  0  0  0  0  0
   -6.0131    5.0709  -18.2636 C   0  0  0  0  0  0  0  0  0  0  0  0
   -6.9245    4.6040  -19.1989 C   0  0  0  0  0  0  0  0  0  0  0  0
   -8.1716    4.1686  -18.7787 C   0  0  0  0  0  0  0  0  0  0  0  0
   -8.4711    4.1418  -17.4151 C   0  0  0  0  0  0  0  0  0  0  0  0
   -7.5543    4.5510  -16.4540 C   0  0  0  0  0  0  0  0  0  0  0  0
   -7.8728    4.4383  -15.1613 N   0  0  0  0  0  0  0  0  0  0  0  0
  1  2  1  0
  2  3  1  0
  2  4  1  0
  4  5  2  0
  5  6  1  0
  6  7  1  0
  7  8  1  0
  9  8  1  1
  9 10  1  0
 10 11  1  0
 11 12  1  0
 12 13  1  0
 13 14  1  0
  6 15  2  0
 15 16  1  0
 16 17  2  0
 17 18  1  0
 18 19  2  0
 19 20  1  0
 20 21  2  0
 21  4  1  0
 14  9  1  0
 20 15  1  0
M  END
>  <inchikey>  (24) 
JJWUJKFKPNAFDU-UHFFFAOYSA-N

>  <alias>  (24) 
CN(C)c1nc(NC[C@@H]2CCCNC2)c2ccccc2n1

>  <tags>  (24) 
{'openbind_xx01zvns2b_c1_knitwork_pure', 'fragmenstein_placed'}

>  <HIPPO Pose ID>  (24) 
32800

>  <ref_pdb>  (24) 
71

>  <smiles>  (24) 
C9041-P95

>  <fragmenstein_runtime>  (24) 
3.240675

>  <fragmenstein_outcome>  (24) 
acceptable

>  <fragmenstein_mode>  (24) 
expansion

>  <fragmenstein_error>  (24) 


>  <HIPPO Compound ID>  (24) 
47553

>  <Energy>  (24) 
-64.926636

>  <scratch_subdir>  (24) 
/opt/xchem-fragalysis-2/maxwin/BulkDock/SCRATCH/511030/C9041-P95

$$$$
c1cncc(-c2nc(NC[C@H]3CCCNC3)c3ccccc3n2)c1
     RDKit          3D

 24 27  0  0  0  0  0  0  0  0999 V2000
   -8.5178    3.3900  -11.1402 C   0  0  0  0  0  0  0  0  0  0  0  0
   -8.3134    4.4538  -10.2816 C   0  0  0  0  0  0  0  0  0  0  0  0
   -7.7428    5.6212  -10.6528 N   0  0  0  0  0  0  0  0  0  0  0  0
   -7.3679    5.7210  -11.9553 C   0  0  0  0  0  0  0  0  0  0  0  0
   -7.5472    4.7274  -12.9131 C   0  0  0  0  0  0  0  0  0  0  0  0
   -7.1444    4.9127  -14.3007 C   0  0  0  0  0  0  0  0  0  0  0  0
   -5.9449    5.4639  -14.5259 N   0  0  0  0  0  0  0  0  0  0  0  0
   -5.5627    5.5655  -15.8055 C   0  0  0  0  0  0  0  0  0  0  0  0
   -4.3102    6.1610  -16.0240 N   0  0  0  0  0  0  0  0  0  0  0  0
   -3.2149    5.2118  -15.8851 C   0  0  0  0  0  0  0  0  0  0  0  0
   -1.8900    5.8474  -16.3365 C   0  0  1  0  0  0  0  0  0  0  0  0
   -1.8147    6.0129  -17.8656 C   0  0  0  0  0  0  0  0  0  0  0  0
   -0.7333    7.0101  -18.2880 C   0  0  0  0  0  0  0  0  0  0  0  0
    0.3195    7.2071  -17.2035 C   0  0  0  0  0  0  0  0  0  0  0  0
   -0.2554    7.7173  -15.9599 N   0  0  0  0  0  0  0  0  0  0  0  0
   -1.5802    7.1745  -15.6306 C   0  0  0  0  0  0  0  0  0  0  0  0
   -6.3425    5.0952  -16.8752 C   0  0  0  0  0  0  0  0  0  0  0  0
   -5.9523    5.1015  -18.2366 C   0  0  0  0  0  0  0  0  0  0  0  0
   -6.8131    4.6363  -19.2208 C   0  0  0  0  0  0  0  0  0  0  0  0
   -8.0801    4.1952  -18.8688 C   0  0  0  0  0  0  0  0  0  0  0  0
   -8.4577    4.1735  -17.5257 C   0  0  0  0  0  0  0  0  0  0  0  0
   -7.5985    4.5936  -16.5191 C   0  0  0  0  0  0  0  0  0  0  0  0
   -8.0024    4.5086  -15.2501 N   0  0  0  0  0  0  0  0  0  0  0  0
   -8.1273    3.5355  -12.4672 C   0  0  0  0  0  0  0  0  0  0  0  0
  1  2  2  0
  2  3  1  0
  3  4  2  0
  4  5  1  0
  5  6  1  0
  6  7  2  0
  7  8  1  0
  8  9  1  0
  9 10  1  0
 11 10  1  6
 11 12  1  0
 12 13  1  0
 13 14  1  0
 14 15  1  0
 15 16  1  0
  8 17  2  0
 17 18  1  0
 18 19  2  0
 19 20  1  0
 20 21  2  0
 21 22  1  0
 22 23  2  0
  5 24  2  0
 24  1  1  0
 23  6  1  0
 16 11  1  0
 22 17  1  0
M  END
>  <inchikey>  (25) 
ZEOXGKWISBSMBI-UHFFFAOYSA-N

>  <alias>  (25) 
c1cncc(-c2nc(NC[C@H]3CCCNC3)c3ccccc3n2)c1

>  <tags>  (25) 
{'openbind_xx01zvns2b_c1_knitwork_pure', 'fragmenstein_placed'}

>  <HIPPO Pose ID>  (25) 
32801

>  <ref_pdb>  (25) 
71

>  <smiles>  (25) 
C9042-P95

>  <fragmenstein_runtime>  (25) 
2.572746

>  <fragmenstein_outcome>  (25) 
acceptable

>  <fragmenstein_mode>  (25) 
expansion

>  <fragmenstein_error>  (25) 


>  <HIPPO Compound ID>  (25) 
11118

>  <Energy>  (25) 
23.051061

>  <scratch_subdir>  (25) 
/opt/xchem-fragalysis-2/maxwin/BulkDock/SCRATCH/511030/C9042-P95

$$$$
c1ccc2c(NC[C@@H]3CCCNC3)nc(C3CC3)nc2c1
     RDKit          3D

 21 24  0  0  0  0  0  0  0  0999 V2000
   -8.0672    4.2438  -18.8900 C   0  0  0  0  0  0  0  0  0  0  0  0
   -6.7815    4.6774  -19.1777 C   0  0  0  0  0  0  0  0  0  0  0  0
   -5.9562    5.0991  -18.1438 C   0  0  0  0  0  0  0  0  0  0  0  0
   -6.4027    5.0616  -16.7992 C   0  0  0  0  0  0  0  0  0  0  0  0
   -5.6623    5.4747  -15.6822 C   0  0  0  0  0  0  0  0  0  0  0  0
   -4.4003    6.0654  -15.8254 N   0  0  0  0  0  0  0  0  0  0  0  0
   -3.2938    5.1369  -15.6565 C   0  0  0  0  0  0  0  0  0  0  0  0
   -1.9889    5.7801  -16.1746 C   0  0  2  0  0  0  0  0  0  0  0  0
   -1.6474    7.0942  -15.4378 C   0  0  0  0  0  0  0  0  0  0  0  0
   -1.2092    8.1869  -16.4061 C   0  0  0  0  0  0  0  0  0  0  0  0
   -2.2324    8.3825  -17.5282 C   0  0  0  0  0  0  0  0  0  0  0  0
   -2.7641    7.1430  -18.1081 N   0  0  0  0  0  0  0  0  0  0  0  0
   -2.0041    5.9611  -17.7064 C   0  0  0  0  0  0  0  0  0  0  0  0
   -6.1091    5.3317  -14.4233 N   0  0  0  0  0  0  0  0  0  0  0  0
   -7.3475    4.8376  -14.2494 C   0  0  0  0  0  0  0  0  0  0  0  0
   -7.8881    4.6774  -12.8475 C   0  0  0  0  0  0  0  0  0  0  0  0
   -7.0702    4.0424  -11.7460 C   0  0  0  0  0  0  0  0  0  0  0  0
   -8.2122    3.2880  -12.3420 C   0  0  0  0  0  0  0  0  0  0  0  0
   -8.1604    4.5102  -15.2688 N   0  0  0  0  0  0  0  0  0  0  0  0
   -7.6848    4.5904  -16.5127 C   0  0  0  0  0  0  0  0  0  0  0  0
   -8.5039    4.2036  -17.5654 C   0  0  0  0  0  0  0  0  0  0  0  0
  1  2  2  0
  2  3  1  0
  3  4  2  0
  4  5  1  0
  5  6  1  0
  6  7  1  0
  8  7  1  1
  8  9  1  0
  9 10  1  0
 10 11  1  0
 11 12  1  0
 12 13  1  0
  5 14  2  0
 14 15  1  0
 15 16  1  0
 16 17  1  0
 17 18  1  0
 15 19  2  0
 19 20  1  0
 20 21  2  0
 21  1  1  0
 20  4  1  0
 13  8  1  0
 18 16  1  0
M  END
>  <inchikey>  (26) 
NWHVMQKFNDHDKB-UHFFFAOYSA-N

>  <alias>  (26) 
c1ccc2c(NC[C@@H]3CCCNC3)nc(C3CC3)nc2c1

>  <tags>  (26) 
{'openbind_xx01zvns2b_c1_knitwork_pure', 'fragmenstein_placed'}

>  <HIPPO Pose ID>  (26) 
32802

>  <ref_pdb>  (26) 
71

>  <smiles>  (26) 
C9043-P95

>  <fragmenstein_runtime>  (26) 
3.076551

>  <fragmenstein_outcome>  (26) 
acceptable

>  <fragmenstein_mode>  (26) 
expansion

>  <fragmenstein_error>  (26) 


>  <HIPPO Compound ID>  (26) 
49318

>  <Energy>  (26) 
8.928403

>  <scratch_subdir>  (26) 
/opt/xchem-fragalysis-2/maxwin/BulkDock/SCRATCH/511030/C9043-P95

$$$$
Brc1cccc2cnc([C@@H]3CCCNC3)nc12
     RDKit          3D

 17 19  0  0  0  0  0  0  0  0999 V2000
   -9.7465    3.9873  -17.5841 Br  0  0  0  0  0  0  0  0  0  0  0  0
   -7.9238    4.4445  -17.7702 C   0  0  0  0  0  0  0  0  0  0  0  0
   -7.4578    4.5121  -19.0857 C   0  0  0  0  0  0  0  0  0  0  0  0
   -6.1603    4.9208  -19.3471 C   0  0  0  0  0  0  0  0  0  0  0  0
   -5.3283    5.2445  -18.2908 C   0  0  0  0  0  0  0  0  0  0  0  0
   -5.8004    5.1339  -16.9724 C   0  0  0  0  0  0  0  0  0  0  0  0
   -4.9808    5.4180  -15.9011 C   0  0  0  0  0  0  0  0  0  0  0  0
   -5.3474    5.2781  -14.6221 N   0  0  0  0  0  0  0  0  0  0  0  0
   -6.5959    4.8302  -14.4002 C   0  0  0  0  0  0  0  0  0  0  0  0
   -6.9011    4.4917  -12.9612 C   0  0  2  0  0  0  0  0  0  0  0  0
   -8.0250    3.4796  -12.7567 C   0  0  0  0  0  0  0  0  0  0  0  0
   -8.1623    3.1591  -11.2705 C   0  0  0  0  0  0  0  0  0  0  0  0
   -8.2867    4.4214  -10.4204 C   0  0  0  0  0  0  0  0  0  0  0  0
   -7.2677    5.4337  -10.7028 N   0  0  0  0  0  0  0  0  0  0  0  0
   -7.1851    5.7499  -12.1355 C   0  0  0  0  0  0  0  0  0  0  0  0
   -7.5059    4.6140  -15.3708 N   0  0  0  0  0  0  0  0  0  0  0  0
   -7.1066    4.7270  -16.6648 C   0  0  0  0  0  0  0  0  0  0  0  0
  1  2  1  0
  2  3  2  0
  3  4  1  0
  4  5  2  0
  5  6  1  0
  6  7  2  0
  7  8  1  0
  8  9  2  0
 10  9  1  6
 10 11  1  0
 11 12  1  0
 12 13  1  0
 13 14  1  0
 14 15  1  0
  9 16  1  0
 16 17  2  0
 17  2  1  0
 17  6  1  0
 15 10  1  0
M  END
>  <inchikey>  (27) 
SCSSGTWOVSWWQC-UHFFFAOYSA-N

>  <alias>  (27) 
Brc1cccc2cnc([C@@H]3CCCNC3)nc12

>  <tags>  (27) 
{'openbind_xx01zvns2b_c1_knitwork_pure', 'fragmenstein_placed'}

>  <HIPPO Pose ID>  (27) 
32806

>  <ref_pdb>  (27) 
71

>  <smiles>  (27) 
C9047-P95

>  <fragmenstein_runtime>  (27) 
1.207402

>  <fragmenstein_outcome>  (27) 
acceptable

>  <fragmenstein_mode>  (27) 
expansion

>  <fragmenstein_error>  (27) 


>  <HIPPO Compound ID>  (27) 
11818

>  <Energy>  (27) 
38.24789

>  <scratch_subdir>  (27) 
/opt/xchem-fragalysis-2/maxwin/BulkDock/SCRATCH/511030/C9047-P95

$$$$
Brc1cccc2c([C@H]3CCCNC3)ncnc12
     RDKit          3D

 17 19  0  0  0  0  0  0  0  0999 V2000
  -10.0650    4.0185  -17.8606 Br  0  0  0  0  0  0  0  0  0  0  0  0
   -8.2086    4.3485  -17.9186 C   0  0  0  0  0  0  0  0  0  0  0  0
   -7.6302    4.3206  -19.1837 C   0  0  0  0  0  0  0  0  0  0  0  0
   -6.2996    4.6473  -19.3314 C   0  0  0  0  0  0  0  0  0  0  0  0
   -5.5632    4.9936  -18.2095 C   0  0  0  0  0  0  0  0  0  0  0  0
   -6.1414    5.0223  -16.9163 C   0  0  0  0  0  0  0  0  0  0  0  0
   -5.4782    5.4098  -15.7369 C   0  0  0  0  0  0  0  0  0  0  0  0
   -4.1115    6.0660  -15.7085 C   0  0  1  0  0  0  0  0  0  0  0  0
   -2.9334    5.1525  -16.0645 C   0  0  0  0  0  0  0  0  0  0  0  0
   -1.7818    5.9913  -16.6050 C   0  0  0  0  0  0  0  0  0  0  0  0
   -2.2110    6.7467  -17.8602 C   0  0  0  0  0  0  0  0  0  0  0  0
   -3.4308    7.5359  -17.7201 N   0  0  0  0  0  0  0  0  0  0  0  0
   -4.0899    7.4422  -16.4189 C   0  0  0  0  0  0  0  0  0  0  0  0
   -6.0640    5.3363  -14.5176 N   0  0  0  0  0  0  0  0  0  0  0  0
   -7.3337    4.9294  -14.4878 C   0  0  0  0  0  0  0  0  0  0  0  0
   -8.0823    4.6472  -15.5510 N   0  0  0  0  0  0  0  0  0  0  0  0
   -7.4901    4.6638  -16.7605 C   0  0  0  0  0  0  0  0  0  0  0  0
  1  2  1  0
  2  3  2  0
  3  4  1  0
  4  5  2  0
  5  6  1  0
  6  7  2  0
  8  7  1  6
  8  9  1  0
  9 10  1  0
 10 11  1  0
 11 12  1  0
 12 13  1  0
  7 14  1  0
 14 15  2  0
 15 16  1  0
 16 17  2  0
 17  2  1  0
 17  6  1  0
 13  8  1  0
M  END
>  <inchikey>  (28) 
AUXRXBZVRVLYSZ-UHFFFAOYSA-N

>  <alias>  (28) 
Brc1cccc2c([C@H]3CCCNC3)ncnc12

>  <tags>  (28) 
{'openbind_xx01zvns2b_c1_knitwork_pure', 'fragmenstein_placed'}

>  <HIPPO Pose ID>  (28) 
32807

>  <ref_pdb>  (28) 
71

>  <smiles>  (28) 
C9048-P95

>  <fragmenstein_runtime>  (28) 
1.169232

>  <fragmenstein_outcome>  (28) 
acceptable

>  <fragmenstein_mode>  (28) 
expansion

>  <fragmenstein_error>  (28) 


>  <HIPPO Compound ID>  (28) 
52693

>  <Energy>  (28) 
56.622882

>  <scratch_subdir>  (28) 
/opt/xchem-fragalysis-2/maxwin/BulkDock/SCRATCH/511030/C9048-P95

$$$$
Cc1cccc2ncnc(N(C)C[C@@H]3CCCNC3)c12
     RDKit          3D

 20 22  0  0  0  0  0  0  0  0999 V2000
   -4.6156    5.4415  -18.8517 C   0  0  0  0  0  0  0  0  0  0  0  0
   -5.9566    5.0339  -18.3096 C   0  0  0  0  0  0  0  0  0  0  0  0
   -6.9094    4.5972  -19.2343 C   0  0  0  0  0  0  0  0  0  0  0  0
   -8.1715    4.2077  -18.8183 C   0  0  0  0  0  0  0  0  0  0  0  0
   -8.4737    4.2065  -17.4618 C   0  0  0  0  0  0  0  0  0  0  0  0
   -7.5457    4.5875  -16.5055 C   0  0  0  0  0  0  0  0  0  0  0  0
   -7.9331    4.5205  -15.2293 N   0  0  0  0  0  0  0  0  0  0  0  0
   -7.0282    4.8410  -14.3065 C   0  0  0  0  0  0  0  0  0  0  0  0
   -5.8024    5.3139  -14.5354 N   0  0  0  0  0  0  0  0  0  0  0  0
   -5.4443    5.4350  -15.8316 C   0  0  0  0  0  0  0  0  0  0  0  0
   -4.2329    6.1359  -16.1061 N   0  0  0  0  0  0  0  0  0  0  0  0
   -4.4668    7.5406  -15.7405 C   0  0  0  0  0  0  0  0  0  0  0  0
   -3.0890    5.4958  -15.4318 C   0  0  0  0  0  0  0  0  0  0  0  0
   -1.7649    6.1889  -15.8235 C   0  0  2  0  0  0  0  0  0  0  0  0
   -1.4484    6.0462  -17.3217 C   0  0  0  0  0  0  0  0  0  0  0  0
    0.0440    6.2057  -17.6209 C   0  0  0  0  0  0  0  0  0  0  0  0
    0.7585    7.0081  -16.5418 C   0  0  0  0  0  0  0  0  0  0  0  0
    0.6641    6.3982  -15.2150 N   0  0  0  0  0  0  0  0  0  0  0  0
   -0.5973    5.6913  -14.9624 C   0  0  0  0  0  0  0  0  0  0  0  0
   -6.2737    5.0312  -16.9099 C   0  0  0  0  0  0  0  0  0  0  0  0
  1  2  1  0
  2  3  2  0
  3  4  1  0
  4  5  2  0
  5  6  1  0
  6  7  2  0
  7  8  1  0
  8  9  2  0
  9 10  1  0
 10 11  1  0
 11 12  1  0
 11 13  1  0
 14 13  1  1
 14 15  1  0
 15 16  1  0
 16 17  1  0
 17 18  1  0
 18 19  1  0
 10 20  2  0
 20  2  1  0
 20  6  1  0
 19 14  1  0
M  END
>  <inchikey>  (29) 
AZKNBDJQBUCYFW-UHFFFAOYSA-N

>  <alias>  (29) 
Cc1cccc2ncnc(N(C)C[C@@H]3CCCNC3)c12

>  <tags>  (29) 
{'openbind_xx01zvns2b_c1_knitwork_pure', 'fragmenstein_placed'}

>  <HIPPO Pose ID>  (29) 
32811

>  <ref_pdb>  (29) 
71

>  <smiles>  (29) 
C9055-P95

>  <fragmenstein_runtime>  (29) 
1.884819

>  <fragmenstein_outcome>  (29) 
acceptable

>  <fragmenstein_mode>  (29) 
expansion

>  <fragmenstein_error>  (29) 


>  <HIPPO Compound ID>  (29) 
1469

>  <Energy>  (29) 
10.866169

>  <scratch_subdir>  (29) 
/opt/xchem-fragalysis-2/maxwin/BulkDock/SCRATCH/511030/C9055-P95

$$$$
CN(C)c1nc(NCC[C@@H]2CCCNC2)nc2ccccc12
     RDKit          3D

 22 24  0  0  0  0  0  0  0  0999 V2000
   -3.3861    4.6154  -15.6736 C   0  0  0  0  0  0  0  0  0  0  0  0
   -4.3323    5.7269  -15.5557 N   0  0  0  0  0  0  0  0  0  0  0  0
   -4.1337    6.5213  -14.3394 C   0  0  0  0  0  0  0  0  0  0  0  0
   -5.6652    5.2071  -15.6061 C   0  0  0  0  0  0  0  0  0  0  0  0
   -6.2994    4.9375  -14.4481 N   0  0  0  0  0  0  0  0  0  0  0  0
   -7.5457    4.4543  -14.5177 C   0  0  0  0  0  0  0  0  0  0  0  0
   -8.2691    4.1457  -13.3743 N   0  0  0  0  0  0  0  0  0  0  0  0
   -7.5523    3.3140  -12.4254 C   0  0  0  0  0  0  0  0  0  0  0  0
   -8.3026    3.2979  -11.0905 C   0  0  0  0  0  0  0  0  0  0  0  0
   -8.0306    4.4917  -10.1460 C   0  0  2  0  0  0  0  0  0  0  0  0
   -8.2166    5.8797  -10.7858 C   0  0  0  0  0  0  0  0  0  0  0  0
   -6.8818    6.5333  -11.1108 C   0  0  0  0  0  0  0  0  0  0  0  0
   -6.0157    6.6654   -9.8525 C   0  0  0  0  0  0  0  0  0  0  0  0
   -6.2337    5.6125   -8.8588 N   0  0  0  0  0  0  0  0  0  0  0  0
   -6.6439    4.3551   -9.4805 C   0  0  0  0  0  0  0  0  0  0  0  0
   -8.2153    4.2504  -15.6458 N   0  0  0  0  0  0  0  0  0  0  0  0
   -7.5793    4.4752  -16.7877 C   0  0  0  0  0  0  0  0  0  0  0  0
   -8.2555    4.1844  -17.9570 C   0  0  0  0  0  0  0  0  0  0  0  0
   -7.6530    4.3572  -19.1965 C   0  0  0  0  0  0  0  0  0  0  0  0
   -6.3668    4.8765  -19.2800 C   0  0  0  0  0  0  0  0  0  0  0  0
   -5.6821    5.2013  -18.1156 C   0  0  0  0  0  0  0  0  0  0  0  0
   -6.2740    4.9729  -16.8512 C   0  0  0  0  0  0  0  0  0  0  0  0
  1  2  1  0
  2  3  1  0
  2  4  1  0
  4  5  2  0
  5  6  1  0
  6  7  1  0
  7  8  1  0
  8  9  1  0
 10  9  1  6
 10 11  1  0
 11 12  1  0
 12 13  1  0
 13 14  1  0
 14 15  1  0
  6 16  2  0
 16 17  1  0
 17 18  2  0
 18 19  1  0
 19 20  2  0
 20 21  1  0
 21 22  2  0
 22  4  1  0
 15 10  1  0
 22 17  1  0
M  END
>  <inchikey>  (30) 
FMCJOZPRLVUXJB-UHFFFAOYSA-N

>  <alias>  (30) 
CN(C)c1nc(NCC[C@@H]2CCCNC2)nc2ccccc12

>  <tags>  (30) 
{'openbind_xx01zvns2b_c1_knitwork_pure', 'fragmenstein_placed'}

>  <HIPPO Pose ID>  (30) 
32813

>  <ref_pdb>  (30) 
71

>  <smiles>  (30) 
C9063-P95

>  <fragmenstein_runtime>  (30) 
5.869536

>  <fragmenstein_outcome>  (30) 
acceptable

>  <fragmenstein_mode>  (30) 
expansion

>  <fragmenstein_error>  (30) 


>  <HIPPO Compound ID>  (30) 
14548

>  <Energy>  (30) 
-70.986293

>  <scratch_subdir>  (30) 
/opt/xchem-fragalysis-2/maxwin/BulkDock/SCRATCH/511030/C9063-P95

$$$$
C[C@@H](Cn1cccn1)Nc1ncnc2ccccc12
     RDKit          3D

 19 21  0  0  0  0  0  0  0  0999 V2000
   -4.3424    8.2080  -15.1045 C   0  0  0  0  0  0  0  0  0  0  0  0
   -4.1651    7.2061  -16.2525 C   0  0  1  0  0  0  0  0  0  0  0  0
   -2.8041    7.4449  -16.9318 C   0  0  0  0  0  0  0  0  0  0  0  0
   -2.7407    6.8200  -18.2404 N   0  0  0  0  0  0  0  0  0  0  0  0
   -2.2499    5.5813  -18.5282 C   0  0  0  0  0  0  0  0  0  0  0  0
   -2.5367    5.3582  -19.8518 C   0  0  0  0  0  0  0  0  0  0  0  0
   -3.1702    6.5381  -20.2843 C   0  0  0  0  0  0  0  0  0  0  0  0
   -3.2753    7.4452  -19.3086 N   0  0  0  0  0  0  0  0  0  0  0  0
   -4.2266    5.8192  -15.7226 N   0  0  0  0  0  0  0  0  0  0  0  0
   -5.5432    5.3402  -15.5686 C   0  0  0  0  0  0  0  0  0  0  0  0
   -5.9325    5.2378  -14.2889 N   0  0  0  0  0  0  0  0  0  0  0  0
   -7.2017    4.8577  -14.0944 C   0  0  0  0  0  0  0  0  0  0  0  0
   -8.1071    4.5934  -15.0403 N   0  0  0  0  0  0  0  0  0  0  0  0
   -7.6852    4.6401  -16.3066 C   0  0  0  0  0  0  0  0  0  0  0  0
   -8.5775    4.3182  -17.3217 C   0  0  0  0  0  0  0  0  0  0  0  0
   -8.1991    4.3394  -18.6642 C   0  0  0  0  0  0  0  0  0  0  0  0
   -6.8975    4.6741  -19.0054 C   0  0  0  0  0  0  0  0  0  0  0  0
   -5.9937    5.0045  -18.0060 C   0  0  0  0  0  0  0  0  0  0  0  0
   -6.3785    5.0093  -16.6483 C   0  0  0  0  0  0  0  0  0  0  0  0
  2  1  1  1
  2  3  1  0
  3  4  1  0
  4  5  1  0
  5  6  2  0
  6  7  1  0
  7  8  2  0
  2  9  1  0
  9 10  1  0
 10 11  2  0
 11 12  1  0
 12 13  2  0
 13 14  1  0
 14 15  2  0
 15 16  1  0
 16 17  2  0
 17 18  1  0
 18 19  2  0
  8  4  1  0
 19 10  1  0
 19 14  1  0
M  END
>  <inchikey>  (31) 
SMMLUJAXGRAQIT-UHFFFAOYSA-N

>  <alias>  (31) 
C[C@@H](Cn1cccn1)Nc1ncnc2ccccc12

>  <tags>  (31) 
{'openbind_xx01zvns2b_c1_knitwork_pure', 'fragmenstein_placed'}

>  <HIPPO Pose ID>  (31) 
32869

>  <ref_pdb>  (31) 
71

>  <smiles>  (31) 
C49000-P7

>  <fragmenstein_runtime>  (31) 
1.013008

>  <fragmenstein_outcome>  (31) 
acceptable

>  <fragmenstein_mode>  (31) 
expansion

>  <fragmenstein_error>  (31) 


>  <HIPPO Compound ID>  (31) 
48202

>  <Energy>  (31) 
0.642389

>  <scratch_subdir>  (31) 
/opt/xchem-fragalysis-2/maxwin/BulkDock/SCRATCH/511030/C49000-P7

$$$$
C[C@H](Cc1ccc(O)cc1)Nc1ncnc2ccccc12
     RDKit          3D

 21 23  0  0  0  0  0  0  0  0999 V2000
   -4.7986    7.9849  -15.4032 C   0  0  0  0  0  0  0  0  0  0  0  0
   -3.6967    6.9218  -15.3154 C   0  0  2  0  0  0  0  0  0  0  0  0
   -2.4499    7.3477  -16.1509 C   0  0  0  0  0  0  0  0  0  0  0  0
   -2.5812    7.1113  -17.6446 C   0  0  0  0  0  0  0  0  0  0  0  0
   -3.4342    7.8918  -18.4359 C   0  0  0  0  0  0  0  0  0  0  0  0
   -3.6968    7.5304  -19.7574 C   0  0  0  0  0  0  0  0  0  0  0  0
   -3.0781    6.4070  -20.2930 C   0  0  0  0  0  0  0  0  0  0  0  0
   -3.3455    6.0173  -21.5691 O   0  0  0  0  0  0  0  0  0  0  0  0
   -2.1633    5.6697  -19.5578 C   0  0  0  0  0  0  0  0  0  0  0  0
   -1.9142    6.0258  -18.2356 C   0  0  0  0  0  0  0  0  0  0  0  0
   -4.1296    5.5693  -15.7074 N   0  0  0  0  0  0  0  0  0  0  0  0
   -5.4627    5.2031  -15.5124 C   0  0  0  0  0  0  0  0  0  0  0  0
   -5.9015    5.1974  -14.2439 N   0  0  0  0  0  0  0  0  0  0  0  0
   -7.1893    4.8856  -14.0652 C   0  0  0  0  0  0  0  0  0  0  0  0
   -8.0847    4.6232  -15.0211 N   0  0  0  0  0  0  0  0  0  0  0  0
   -7.6390    4.6276  -16.2788 C   0  0  0  0  0  0  0  0  0  0  0  0
   -8.5391    4.3456  -17.2986 C   0  0  0  0  0  0  0  0  0  0  0  0
   -8.1591    4.3617  -18.6404 C   0  0  0  0  0  0  0  0  0  0  0  0
   -6.8479    4.6572  -18.9786 C   0  0  0  0  0  0  0  0  0  0  0  0
   -5.9283    4.9346  -17.9746 C   0  0  0  0  0  0  0  0  0  0  0  0
   -6.3090    4.9228  -16.6081 C   0  0  0  0  0  0  0  0  0  0  0  0
  2  1  1  6
  2  3  1  0
  3  4  1  0
  4  5  2  0
  5  6  1  0
  6  7  2  0
  7  8  1  0
  7  9  1  0
  9 10  2  0
  2 11  1  0
 11 12  1  0
 12 13  2  0
 13 14  1  0
 14 15  2  0
 15 16  1  0
 16 17  2  0
 17 18  1  0
 18 19  2  0
 19 20  1  0
 20 21  2  0
 10  4  1  0
 21 12  1  0
 21 16  1  0
M  END
>  <inchikey>  (32) 
HJYXWIVMIQDJNR-UHFFFAOYSA-N

>  <alias>  (32) 
C[C@H](Cc1ccc(O)cc1)Nc1ncnc2ccccc12

>  <tags>  (32) 
{'openbind_xx01zvns2b_c1_knitwork_pure', 'fragmenstein_placed'}

>  <HIPPO Pose ID>  (32) 
32871

>  <ref_pdb>  (32) 
71

>  <smiles>  (32) 
C49003-P7

>  <fragmenstein_runtime>  (32) 
5.120587

>  <fragmenstein_outcome>  (32) 
acceptable

>  <fragmenstein_mode>  (32) 
expansion

>  <fragmenstein_error>  (32) 


>  <HIPPO Compound ID>  (32) 
7401

>  <Energy>  (32) 
18.912887

>  <scratch_subdir>  (32) 
/opt/xchem-fragalysis-2/maxwin/BulkDock/SCRATCH/511030/C49003-P7

$$$$
CC(C)Nc1cc(C(F)(F)F)nc(-c2ccccn2)n1
     RDKit          3D

 20 21  0  0  0  0  0  0  0  0999 V2000
   -2.2339    6.3268  -18.0859 C   0  0  0  0  0  0  0  0  0  0  0  0
   -3.4976    5.4582  -18.0010 C   0  0  0  0  0  0  0  0  0  0  0  0
   -4.0369    5.2951  -19.4189 C   0  0  0  0  0  0  0  0  0  0  0  0
   -4.4311    6.1224  -17.0633 N   0  0  0  0  0  0  0  0  0  0  0  0
   -5.6199    5.5053  -16.6602 C   0  0  0  0  0  0  0  0  0  0  0  0
   -6.5877    5.1400  -17.5675 C   0  0  0  0  0  0  0  0  0  0  0  0
   -7.7426    4.5515  -17.0900 C   0  0  0  0  0  0  0  0  0  0  0  0
   -8.7802    4.0664  -18.0893 C   0  0  0  0  0  0  0  0  0  0  0  0
   -8.2348    3.7910  -19.3103 F   0  0  0  0  0  0  0  0  0  0  0  0
   -9.4024    2.9168  -17.7012 F   0  0  0  0  0  0  0  0  0  0  0  0
   -9.7841    4.9457  -18.3229 F   0  0  0  0  0  0  0  0  0  0  0  0
   -7.9601    4.4010  -15.7644 N   0  0  0  0  0  0  0  0  0  0  0  0
   -7.0017    4.8469  -14.9272 C   0  0  0  0  0  0  0  0  0  0  0  0
   -7.2943    4.7100  -13.4786 C   0  0  0  0  0  0  0  0  0  0  0  0
   -7.8171    3.5174  -12.9694 C   0  0  0  0  0  0  0  0  0  0  0  0
   -8.1744    3.4306  -11.6251 C   0  0  0  0  0  0  0  0  0  0  0  0
   -8.0033    4.5379  -10.8103 C   0  0  0  0  0  0  0  0  0  0  0  0
   -7.4732    5.6848  -11.3765 C   0  0  0  0  0  0  0  0  0  0  0  0
   -7.1142    5.7998  -12.6788 N   0  0  0  0  0  0  0  0  0  0  0  0
   -5.8256    5.3866  -15.3350 N   0  0  0  0  0  0  0  0  0  0  0  0
  1  2  1  0
  2  3  1  0
  2  4  1  0
  4  5  1  0
  5  6  2  0
  6  7  1  0
  7  8  1  0
  8  9  1  0
  8 10  1  0
  8 11  1  0
  7 12  2  0
 12 13  1  0
 13 14  1  0
 14 15  2  0
 15 16  1  0
 16 17  2  0
 17 18  1  0
 18 19  2  0
 13 20  2  0
 20  5  1  0
 19 14  1  0
M  END
>  <inchikey>  (33) 
BAPVJVHHLXSAEA-UHFFFAOYSA-N

>  <alias>  (33) 
CC(C)Nc1cc(C(F)(F)F)nc(-c2ccccn2)n1

>  <tags>  (33) 
{'openbind_xx01zvns2b_c1_knitwork_pure', 'fragmenstein_placed'}

>  <HIPPO Pose ID>  (33) 
32879

>  <ref_pdb>  (33) 
71

>  <smiles>  (33) 
C49043-P7

>  <fragmenstein_runtime>  (33) 
4.585758

>  <fragmenstein_outcome>  (33) 
acceptable

>  <fragmenstein_mode>  (33) 
expansion

>  <fragmenstein_error>  (33) 


>  <HIPPO Compound ID>  (33) 
1789

>  <Energy>  (33) 
57.768078

>  <scratch_subdir>  (33) 
/opt/xchem-fragalysis-2/maxwin/BulkDock/SCRATCH/511030/C49043-P7

$$$$
c1ccc(-c2nc3ccccc3n2Cc2nc3c4c(ncn3n2)CCC4)nc1
     RDKit          3D

 28 33  0  0  0  0  0  0  0  0999 V2000
   -7.7018    4.6787  -10.3808 C   0  0  0  0  0  0  0  0  0  0  0  0
   -8.1059    3.5530  -11.0812 C   0  0  0  0  0  0  0  0  0  0  0  0
   -7.9779    3.5488  -12.4631 C   0  0  0  0  0  0  0  0  0  0  0  0
   -7.4482    4.6660  -13.1037 C   0  0  0  0  0  0  0  0  0  0  0  0
   -7.4997    4.7399  -14.5632 C   0  0  0  0  0  0  0  0  0  0  0  0
   -8.6087    4.4907  -15.2317 N   0  0  0  0  0  0  0  0  0  0  0  0
   -8.2715    4.4776  -16.5452 C   0  0  0  0  0  0  0  0  0  0  0  0
   -9.0987    4.2060  -17.6425 C   0  0  0  0  0  0  0  0  0  0  0  0
   -8.5439    4.2158  -18.9177 C   0  0  0  0  0  0  0  0  0  0  0  0
   -7.1914    4.4756  -19.0934 C   0  0  0  0  0  0  0  0  0  0  0  0
   -6.3630    4.7532  -18.0087 C   0  0  0  0  0  0  0  0  0  0  0  0
   -6.9218    4.7676  -16.7238 C   0  0  0  0  0  0  0  0  0  0  0  0
   -6.4502    4.9985  -15.4395 N   0  0  0  0  0  0  0  0  0  0  0  0
   -5.0954    5.3351  -15.0047 C   0  0  0  0  0  0  0  0  0  0  0  0
   -4.2009    5.8420  -16.0856 C   0  0  0  0  0  0  0  0  0  0  0  0
   -4.2900    7.1368  -16.5658 N   0  0  0  0  0  0  0  0  0  0  0  0
   -3.5266    7.1113  -17.6339 C   0  0  0  0  0  0  0  0  0  0  0  0
   -3.2340    8.0144  -18.6736 C   0  0  0  0  0  0  0  0  0  0  0  0
   -2.4857    7.5601  -19.6969 C   0  0  0  0  0  0  0  0  0  0  0  0
   -1.9573    6.2944  -19.8325 N   0  0  0  0  0  0  0  0  0  0  0  0
   -2.1989    5.4689  -18.8487 C   0  0  0  0  0  0  0  0  0  0  0  0
   -2.9644    5.8685  -17.7605 N   0  0  0  0  0  0  0  0  0  0  0  0
   -3.3077    5.0623  -16.7316 N   0  0  0  0  0  0  0  0  0  0  0  0
   -2.2786    8.6070  -20.7433 C   0  0  0  0  0  0  0  0  0  0  0  0
   -2.7261    9.8811  -20.0237 C   0  0  0  0  0  0  0  0  0  0  0  0
   -3.6465    9.4323  -18.8862 C   0  0  0  0  0  0  0  0  0  0  0  0
   -7.0074    5.7604  -12.4433 N   0  0  0  0  0  0  0  0  0  0  0  0
   -7.1623    5.7397  -11.0965 C   0  0  0  0  0  0  0  0  0  0  0  0
  1  2  2  0
  2  3  1  0
  3  4  2  0
  4  5  1  0
  5  6  2  0
  6  7  1  0
  7  8  2  0
  8  9  1  0
  9 10  2  0
 10 11  1  0
 11 12  2  0
 12 13  1  0
 13 14  1  0
 14 15  1  0
 15 16  1  0
 16 17  2  0
 17 18  1  0
 18 19  2  0
 19 20  1  0
 20 21  2  0
 21 22  1  0
 22 23  1  0
 19 24  1  0
 24 25  1  0
 25 26  1  0
  4 27  1  0
 27 28  2  0
 28  1  1  0
 13  5  1  0
 23 15  2  0
 12  7  1  0
 22 17  1  0
 26 18  1  0
M  END
>  <inchikey>  (34) 
BZDBHKJKSDGAMO-UHFFFAOYSA-N

>  <alias>  (34) 
c1ccc(-c2nc3ccccc3n2Cc2nc3c4c(ncn3n2)CCC4)nc1

>  <tags>  (34) 
{'openbind_xx01zvns2b_c1_knitwork_pure', 'fragmenstein_placed'}

>  <HIPPO Pose ID>  (34) 
32889

>  <ref_pdb>  (34) 
71

>  <smiles>  (34) 
C10726-P7

>  <fragmenstein_runtime>  (34) 
7.396777

>  <fragmenstein_outcome>  (34) 
acceptable

>  <fragmenstein_mode>  (34) 
expansion

>  <fragmenstein_error>  (34) 


>  <HIPPO Compound ID>  (34) 
17115

>  <Energy>  (34) 
118.265671

>  <scratch_subdir>  (34) 
/opt/xchem-fragalysis-2/maxwin/BulkDock/SCRATCH/511030/C10726-P7

$$$$
CCc1nc2ccccc2n1[C@@H]1CCCN(c2ccccn2)C1
     RDKit          3D

 23 26  0  0  0  0  0  0  0  0999 V2000
   -2.8609    4.9575  -19.2006 C   0  0  0  0  0  0  0  0  0  0  0  0
   -3.8379    5.9980  -18.6863 C   0  0  0  0  0  0  0  0  0  0  0  0
   -5.1367    5.3987  -18.2571 C   0  0  0  0  0  0  0  0  0  0  0  0
   -6.0117    4.9431  -19.1245 N   0  0  0  0  0  0  0  0  0  0  0  0
   -7.1266    4.6266  -18.4110 C   0  0  0  0  0  0  0  0  0  0  0  0
   -8.3718    4.1727  -18.8778 C   0  0  0  0  0  0  0  0  0  0  0  0
   -9.4025    3.9312  -17.9746 C   0  0  0  0  0  0  0  0  0  0  0  0
   -9.1815    4.1074  -16.6224 C   0  0  0  0  0  0  0  0  0  0  0  0
   -7.9549    4.5610  -16.1427 C   0  0  0  0  0  0  0  0  0  0  0  0
   -6.9210    4.8311  -17.0478 C   0  0  0  0  0  0  0  0  0  0  0  0
   -5.6224    5.3088  -16.9494 N   0  0  0  0  0  0  0  0  0  0  0  0
   -4.9223    5.8289  -15.7645 C   0  0  2  0  0  0  0  0  0  0  0  0
   -3.5843    5.1154  -15.4582 C   0  0  0  0  0  0  0  0  0  0  0  0
   -3.7766    3.7873  -14.7365 C   0  0  0  0  0  0  0  0  0  0  0  0
   -4.6336    3.9270  -13.4825 C   0  0  0  0  0  0  0  0  0  0  0  0
   -5.8888    4.6080  -13.8202 N   0  0  0  0  0  0  0  0  0  0  0  0
   -6.7661    4.6010  -12.7132 C   0  0  0  0  0  0  0  0  0  0  0  0
   -7.3868    3.3965  -12.3667 C   0  0  0  0  0  0  0  0  0  0  0  0
   -8.1838    3.3309  -11.2308 C   0  0  0  0  0  0  0  0  0  0  0  0
   -8.3485    4.4718  -10.4659 C   0  0  0  0  0  0  0  0  0  0  0  0
   -7.7539    5.6411  -10.9043 C   0  0  0  0  0  0  0  0  0  0  0  0
   -6.9817    5.7339  -12.0117 N   0  0  0  0  0  0  0  0  0  0  0  0
   -5.7097    5.9368  -14.4321 C   0  0  0  0  0  0  0  0  0  0  0  0
  1  2  1  0
  2  3  1  0
  3  4  2  0
  4  5  1  0
  5  6  2  0
  6  7  1  0
  7  8  2  0
  8  9  1  0
  9 10  2  0
 10 11  1  0
 12 11  1  6
 12 13  1  0
 13 14  1  0
 14 15  1  0
 15 16  1  0
 16 17  1  0
 17 18  2  0
 18 19  1  0
 19 20  2  0
 20 21  1  0
 21 22  2  0
 16 23  1  0
 11  3  1  0
 23 12  1  0
 10  5  1  0
 22 17  1  0
M  END
>  <inchikey>  (35) 
PBARBCYGPOLCCK-UHFFFAOYSA-N

>  <alias>  (35) 
CCc1nc2ccccc2n1[C@@H]1CCCN(c2ccccn2)C1

>  <tags>  (35) 
{'openbind_xx01zvns2b_c1_knitwork_pure', 'fragmenstein_placed'}

>  <HIPPO Pose ID>  (35) 
32901

>  <ref_pdb>  (35) 
71

>  <smiles>  (35) 
C10745-P7

>  <fragmenstein_runtime>  (35) 
2.915578

>  <fragmenstein_outcome>  (35) 
acceptable

>  <fragmenstein_mode>  (35) 
expansion

>  <fragmenstein_error>  (35) 


>  <HIPPO Compound ID>  (35) 
53672

>  <Energy>  (35) 
19.924118

>  <scratch_subdir>  (35) 
/opt/xchem-fragalysis-2/maxwin/BulkDock/SCRATCH/511030/C10745-P7

$$$$
O=C(NCc1cnn2c1CNCC2)c1cccc2cccnc12
     RDKit          3D

 23 26  0  0  0  0  0  0  0  0999 V2000
   -4.9754    4.1152  -13.9167 O   0  0  0  0  0  0  0  0  0  0  0  0
   -6.0211    4.6330  -13.8871 C   0  0  0  0  0  0  0  0  0  0  0  0
   -6.7730    5.3101  -12.7135 N   0  0  0  0  0  0  0  0  0  0  0  0
   -6.3528    5.5724  -11.3617 C   0  0  0  0  0  0  0  0  0  0  0  0
   -7.3625    5.3873  -10.2848 C   0  0  0  0  0  0  0  0  0  0  0  0
   -7.8291    6.3903   -9.3916 C   0  0  0  0  0  0  0  0  0  0  0  0
   -8.4752    5.8989   -8.3307 N   0  0  0  0  0  0  0  0  0  0  0  0
   -8.4284    4.5717   -8.5375 N   0  0  0  0  0  0  0  0  0  0  0  0
   -7.8773    4.2226   -9.7413 C   0  0  0  0  0  0  0  0  0  0  0  0
   -7.8363    2.8001  -10.1464 C   0  0  0  0  0  0  0  0  0  0  0  0
   -7.8335    1.9211   -8.9786 N   0  0  0  0  0  0  0  0  0  0  0  0
   -8.9250    2.2329   -8.0524 C   0  0  0  0  0  0  0  0  0  0  0  0
   -8.7614    3.6340   -7.4791 C   0  0  0  0  0  0  0  0  0  0  0  0
   -6.7575    4.7466  -15.1980 C   0  0  0  0  0  0  0  0  0  0  0  0
   -8.1144    4.3904  -15.2504 C   0  0  0  0  0  0  0  0  0  0  0  0
   -8.7738    4.3434  -16.4768 C   0  0  0  0  0  0  0  0  0  0  0  0
   -8.0840    4.6274  -17.6511 C   0  0  0  0  0  0  0  0  0  0  0  0
   -6.7328    4.9934  -17.6092 C   0  0  0  0  0  0  0  0  0  0  0  0
   -6.0497    5.2665  -18.8041 C   0  0  0  0  0  0  0  0  0  0  0  0
   -4.7120    5.6260  -18.7743 C   0  0  0  0  0  0  0  0  0  0  0  0
   -4.1093    5.7251  -17.5405 C   0  0  0  0  0  0  0  0  0  0  0  0
   -4.7428    5.4851  -16.3719 N   0  0  0  0  0  0  0  0  0  0  0  0
   -6.0401    5.0818  -16.3752 C   0  0  0  0  0  0  0  0  0  0  0  0
  1  2  2  0
  2  3  1  0
  3  4  1  0
  4  5  1  0
  5  6  1  0
  6  7  2  0
  7  8  1  0
  8  9  1  0
  9 10  1  0
 10 11  1  0
 11 12  1  0
 12 13  1  0
  2 14  1  0
 14 15  2  0
 15 16  1  0
 16 17  2  0
 17 18  1  0
 18 19  2  0
 19 20  1  0
 20 21  2  0
 21 22  1  0
 22 23  2  0
  9  5  2  0
 23 14  1  0
 13  8  1  0
 23 18  1  0
M  END
>  <inchikey>  (36) 
VVEZFSYECLNXMC-UHFFFAOYSA-N

>  <alias>  (36) 
O=C(NCc1cnn2c1CNCC2)c1cccc2cccnc12

>  <tags>  (36) 
{'openbind_xx01zvns2b_c1_knitwork_pure', 'fragmenstein_placed'}

>  <HIPPO Pose ID>  (36) 
32992

>  <ref_pdb>  (36) 
71

>  <smiles>  (36) 
C2169-P89

>  <fragmenstein_runtime>  (36) 
3.377263

>  <fragmenstein_outcome>  (36) 
acceptable

>  <fragmenstein_mode>  (36) 
expansion

>  <fragmenstein_error>  (36) 


>  <HIPPO Compound ID>  (36) 
14109

>  <Energy>  (36) 
52.671642

>  <scratch_subdir>  (36) 
/opt/xchem-fragalysis-2/maxwin/BulkDock/SCRATCH/511030/C2169-P89

$$$$
O=C(Cc1n[nH]c2ccccc12)NC[C@H]1CCN(CCO)C1
     RDKit          3D

 22 24  0  0  0  0  0  0  0  0999 V2000
   -3.1352    3.9790  -16.8061 O   0  0  0  0  0  0  0  0  0  0  0  0
   -3.2212    5.0387  -16.3229 C   0  0  0  0  0  0  0  0  0  0  0  0
   -4.1222    6.1528  -16.8642 C   0  0  0  0  0  0  0  0  0  0  0  0
   -5.2474    5.6398  -17.6976 C   0  0  0  0  0  0  0  0  0  0  0  0
   -5.1564    5.6984  -19.0331 N   0  0  0  0  0  0  0  0  0  0  0  0
   -6.3363    5.1960  -19.4562 N   0  0  0  0  0  0  0  0  0  0  0  0
   -7.2150    4.9080  -18.4447 C   0  0  0  0  0  0  0  0  0  0  0  0
   -8.5428    4.4680  -18.4711 C   0  0  0  0  0  0  0  0  0  0  0  0
   -9.1889    4.3081  -17.2449 C   0  0  0  0  0  0  0  0  0  0  0  0
   -8.5192    4.5465  -16.0461 C   0  0  0  0  0  0  0  0  0  0  0  0
   -7.1876    4.9844  -16.0424 C   0  0  0  0  0  0  0  0  0  0  0  0
   -6.5253    5.1742  -17.2699 C   0  0  0  0  0  0  0  0  0  0  0  0
   -2.5428    5.6245  -15.0473 N   0  0  0  0  0  0  0  0  0  0  0  0
   -1.6990    4.9924  -14.0610 C   0  0  0  0  0  0  0  0  0  0  0  0
   -2.4646    3.8691  -13.3759 C   0  0  1  0  0  0  0  0  0  0  0  0
   -1.7075    3.1325  -12.2794 C   0  0  0  0  0  0  0  0  0  0  0  0
   -2.7940    2.6955  -11.2872 C   0  0  0  0  0  0  0  0  0  0  0  0
   -4.0783    3.2407  -11.7801 N   0  0  0  0  0  0  0  0  0  0  0  0
   -4.8340    2.1794  -12.4878 C   0  0  0  0  0  0  0  0  0  0  0  0
   -6.0946    2.6539  -13.2258 C   0  0  0  0  0  0  0  0  0  0  0  0
   -6.8626    1.5357  -13.6504 O   0  0  0  0  0  0  0  0  0  0  0  0
   -3.6961    4.3648  -12.6363 C   0  0  0  0  0  0  0  0  0  0  0  0
  1  2  2  0
  2  3  1  0
  3  4  1  0
  4  5  2  0
  5  6  1  0
  6  7  1  0
  7  8  2  0
  8  9  1  0
  9 10  2  0
 10 11  1  0
 11 12  2  0
  2 13  1  0
 13 14  1  0
 15 14  1  1
 15 16  1  0
 16 17  1  0
 17 18  1  0
 18 19  1  0
 19 20  1  0
 20 21  1  0
 18 22  1  0
 12  4  1  0
 22 15  1  0
 12  7  1  0
M  END
>  <inchikey>  (37) 
LQWGLYFSSYRUNU-UHFFFAOYSA-N

>  <alias>  (37) 
O=C(Cc1n[nH]c2ccccc12)NC[C@H]1CCN(CCO)C1

>  <tags>  (37) 
{'openbind_xx01zvns2b_c1_knitwork_pure', 'fragmenstein_placed'}

>  <HIPPO Pose ID>  (37) 
33055

>  <ref_pdb>  (37) 
71

>  <smiles>  (37) 
C49277-P35

>  <fragmenstein_runtime>  (37) 
3.289816

>  <fragmenstein_outcome>  (37) 
acceptable

>  <fragmenstein_mode>  (37) 
expansion

>  <fragmenstein_error>  (37) 


>  <HIPPO Compound ID>  (37) 
3953

>  <Energy>  (37) 
78.756607

>  <scratch_subdir>  (37) 
/opt/xchem-fragalysis-2/maxwin/BulkDock/SCRATCH/511030/C49277-P35

$$$$
CCO[C@]1(CNC(=O)Cc2n[nH]c3ccccc23)CCOC1
     RDKit          3D

 22 24  0  0  0  0  0  0  0  0999 V2000
   -4.7000    1.9576  -12.3777 C   0  0  0  0  0  0  0  0  0  0  0  0
   -5.6362    2.5209  -13.4232 C   0  0  0  0  0  0  0  0  0  0  0  0
   -6.6347    3.4033  -12.9495 O   0  0  0  0  0  0  0  0  0  0  0  0
   -6.2564    4.5927  -12.2485 C   0  0  2  0  0  0  0  0  0  0  0  0
   -4.9804    5.3359  -12.7485 C   0  0  0  0  0  0  0  0  0  0  0  0
   -4.9773    5.7143  -14.1466 N   0  0  0  0  0  0  0  0  0  0  0  0
   -4.1029    5.2006  -15.3331 C   0  0  0  0  0  0  0  0  0  0  0  0
   -3.3090    4.3412  -15.3731 O   0  0  0  0  0  0  0  0  0  0  0  0
   -4.4122    6.0782  -16.5423 C   0  0  0  0  0  0  0  0  0  0  0  0
   -5.4058    5.4957  -17.4892 C   0  0  0  0  0  0  0  0  0  0  0  0
   -5.1446    5.5459  -18.8054 N   0  0  0  0  0  0  0  0  0  0  0  0
   -6.2720    5.0736  -19.3803 N   0  0  0  0  0  0  0  0  0  0  0  0
   -7.2693    4.7859  -18.4874 C   0  0  0  0  0  0  0  0  0  0  0  0
   -8.5924    4.3720  -18.6789 C   0  0  0  0  0  0  0  0  0  0  0  0
   -9.3887    4.2027  -17.5486 C   0  0  0  0  0  0  0  0  0  0  0  0
   -8.8565    4.3798  -16.2781 C   0  0  0  0  0  0  0  0  0  0  0  0
   -7.5271    4.7748  -16.1068 C   0  0  0  0  0  0  0  0  0  0  0  0
   -6.7205    5.0109  -17.2323 C   0  0  0  0  0  0  0  0  0  0  0  0
   -6.1790    4.3239  -10.7461 C   0  0  0  0  0  0  0  0  0  0  0  0
   -6.5984    5.6364  -10.1095 C   0  0  0  0  0  0  0  0  0  0  0  0
   -7.3335    6.3795  -11.0913 O   0  0  0  0  0  0  0  0  0  0  0  0
   -7.4618    5.5425  -12.2492 C   0  0  0  0  0  0  0  0  0  0  0  0
  1  2  1  0
  2  3  1  0
  3  4  1  0
  4  5  1  6
  5  6  1  0
  6  7  1  0
  7  8  2  0
  7  9  1  0
  9 10  1  0
 10 11  2  0
 11 12  1  0
 12 13  1  0
 13 14  2  0
 14 15  1  0
 15 16  2  0
 16 17  1  0
 17 18  2  0
  4 19  1  0
 19 20  1  0
 20 21  1  0
 21 22  1  0
 22  4  1  0
 18 10  1  0
 18 13  1  0
M  END
>  <inchikey>  (38) 
DWFGSQDBQRTDFU-UHFFFAOYSA-N

>  <alias>  (38) 
CCO[C@]1(CNC(=O)Cc2n[nH]c3ccccc23)CCOC1

>  <tags>  (38) 
{'openbind_xx01zvns2b_c1_knitwork_pure', 'fragmenstein_placed'}

>  <HIPPO Pose ID>  (38) 
33057

>  <ref_pdb>  (38) 
71

>  <smiles>  (38) 
C49279-P35

>  <fragmenstein_runtime>  (38) 
3.337044

>  <fragmenstein_outcome>  (38) 
acceptable

>  <fragmenstein_mode>  (38) 
expansion

>  <fragmenstein_error>  (38) 


>  <HIPPO Compound ID>  (38) 
52296

>  <Energy>  (38) 
97.64379

>  <scratch_subdir>  (38) 
/opt/xchem-fragalysis-2/maxwin/BulkDock/SCRATCH/511030/C49279-P35

$$$$
O=C(Cc1n[nH]c2ccccc12)NCC1CCN(CCO)CC1
     RDKit          3D

 23 25  0  0  0  0  0  0  0  0999 V2000
   -2.7109    4.2602  -16.8957 O   0  0  0  0  0  0  0  0  0  0  0  0
   -3.1010    5.0614  -16.1378 C   0  0  0  0  0  0  0  0  0  0  0  0
   -4.3468    5.9318  -16.3516 C   0  0  0  0  0  0  0  0  0  0  0  0
   -5.3184    5.4492  -17.3808 C   0  0  0  0  0  0  0  0  0  0  0  0
   -5.0536    5.5365  -18.6943 N   0  0  0  0  0  0  0  0  0  0  0  0
   -6.1829    5.0790  -19.2841 N   0  0  0  0  0  0  0  0  0  0  0  0
   -7.1950    4.7986  -18.4036 C   0  0  0  0  0  0  0  0  0  0  0  0
   -8.5194    4.3925  -18.6016 C   0  0  0  0  0  0  0  0  0  0  0  0
   -9.3252    4.2492  -17.4714 C   0  0  0  0  0  0  0  0  0  0  0  0
   -8.8125    4.4743  -16.1971 C   0  0  0  0  0  0  0  0  0  0  0  0
   -7.4861    4.8767  -16.0197 C   0  0  0  0  0  0  0  0  0  0  0  0
   -6.6601    5.0336  -17.1457 C   0  0  0  0  0  0  0  0  0  0  0  0
   -2.4815    5.5707  -14.7926 N   0  0  0  0  0  0  0  0  0  0  0  0
   -1.2184    5.2627  -14.1687 C   0  0  0  0  0  0  0  0  0  0  0  0
   -1.2764    4.4988  -12.8296 C   0  0  0  0  0  0  0  0  0  0  0  0
   -1.4997    2.9966  -13.0072 C   0  0  0  0  0  0  0  0  0  0  0  0
   -2.9471    2.6514  -13.3602 C   0  0  0  0  0  0  0  0  0  0  0  0
   -3.9396    3.4610  -12.6238 N   0  0  0  0  0  0  0  0  0  0  0  0
   -5.1433    2.6562  -12.3496 C   0  0  0  0  0  0  0  0  0  0  0  0
   -6.1416    2.7884  -13.5001 C   0  0  0  0  0  0  0  0  0  0  0  0
   -6.9538    1.6292  -13.6135 O   0  0  0  0  0  0  0  0  0  0  0  0
   -3.3826    4.0684  -11.4193 C   0  0  0  0  0  0  0  0  0  0  0  0
   -2.2826    5.0695  -11.8102 C   0  0  0  0  0  0  0  0  0  0  0  0
  1  2  2  0
  2  3  1  0
  3  4  1  0
  4  5  2  0
  5  6  1  0
  6  7  1  0
  7  8  2  0
  8  9  1  0
  9 10  2  0
 10 11  1  0
 11 12  2  0
  2 13  1  0
 13 14  1  0
 14 15  1  0
 15 16  1  0
 16 17  1  0
 17 18  1  0
 18 19  1  0
 19 20  1  0
 20 21  1  0
 18 22  1  0
 22 23  1  0
 12  4  1  0
 23 15  1  0
 12  7  1  0
M  END
>  <inchikey>  (39) 
JMHKZQKJYJXGMM-UHFFFAOYSA-N

>  <alias>  (39) 
O=C(Cc1n[nH]c2ccccc12)NCC1CCN(CCO)CC1

>  <tags>  (39) 
{'openbind_xx01zvns2b_c1_knitwork_pure', 'fragmenstein_placed'}

>  <HIPPO Pose ID>  (39) 
33058

>  <ref_pdb>  (39) 
71

>  <smiles>  (39) 
C49280-P35

>  <fragmenstein_runtime>  (39) 
4.674532

>  <fragmenstein_outcome>  (39) 
acceptable

>  <fragmenstein_mode>  (39) 
expansion

>  <fragmenstein_error>  (39) 


>  <HIPPO Compound ID>  (39) 
15670

>  <Energy>  (39) 
81.689969

>  <scratch_subdir>  (39) 
/opt/xchem-fragalysis-2/maxwin/BulkDock/SCRATCH/511030/C49280-P35

$$$$
O=C(Cc1n[nH]c2ccccc12)NC[C@@H]1CCCN(CCO)C1
     RDKit          3D

 23 25  0  0  0  0  0  0  0  0999 V2000
   -3.0995    4.1573  -16.7664 O   0  0  0  0  0  0  0  0  0  0  0  0
   -3.1902    5.2437  -16.3464 C   0  0  0  0  0  0  0  0  0  0  0  0
   -4.1825    6.2876  -16.8619 C   0  0  0  0  0  0  0  0  0  0  0  0
   -5.2763    5.7116  -17.6940 C   0  0  0  0  0  0  0  0  0  0  0  0
   -5.1827    5.7615  -19.0300 N   0  0  0  0  0  0  0  0  0  0  0  0
   -6.3462    5.2215  -19.4513 N   0  0  0  0  0  0  0  0  0  0  0  0
   -7.2211    4.9216  -18.4402 C   0  0  0  0  0  0  0  0  0  0  0  0
   -8.5408    4.4587  -18.4669 C   0  0  0  0  0  0  0  0  0  0  0  0
   -9.1848    4.2919  -17.2406 C   0  0  0  0  0  0  0  0  0  0  0  0
   -8.5191    4.5411  -16.0416 C   0  0  0  0  0  0  0  0  0  0  0  0
   -7.1957    5.0026  -16.0375 C   0  0  0  0  0  0  0  0  0  0  0  0
   -6.5386    5.2062  -17.2656 C   0  0  0  0  0  0  0  0  0  0  0  0
   -2.4257    5.9428  -15.1785 N   0  0  0  0  0  0  0  0  0  0  0  0
   -1.4687    5.4143  -14.2379 C   0  0  0  0  0  0  0  0  0  0  0  0
   -2.1603    4.8364  -12.9950 C   0  0  2  0  0  0  0  0  0  0  0  0
   -1.1282    4.2993  -11.9976 C   0  0  0  0  0  0  0  0  0  0  0  0
   -1.8242    3.6440  -10.8077 C   0  0  0  0  0  0  0  0  0  0  0  0
   -2.8412    2.5932  -11.2578 C   0  0  0  0  0  0  0  0  0  0  0  0
   -3.8272    3.1763  -12.1834 N   0  0  0  0  0  0  0  0  0  0  0  0
   -4.8036    2.1334  -12.5739 C   0  0  0  0  0  0  0  0  0  0  0  0
   -6.0231    2.6604  -13.3438 C   0  0  0  0  0  0  0  0  0  0  0  0
   -6.9283    1.5929  -13.6063 O   0  0  0  0  0  0  0  0  0  0  0  0
   -3.1580    3.7269  -13.3699 C   0  0  0  0  0  0  0  0  0  0  0  0
  1  2  2  0
  2  3  1  0
  3  4  1  0
  4  5  2  0
  5  6  1  0
  6  7  1  0
  7  8  2  0
  8  9  1  0
  9 10  2  0
 10 11  1  0
 11 12  2  0
  2 13  1  0
 13 14  1  0
 15 14  1  6
 15 16  1  0
 16 17  1  0
 17 18  1  0
 18 19  1  0
 19 20  1  0
 20 21  1  0
 21 22  1  0
 19 23  1  0
 12  4  1  0
 23 15  1  0
 12  7  1  0
M  END
>  <inchikey>  (40) 
HCFOJUVFUFYAEU-UHFFFAOYSA-N

>  <alias>  (40) 
O=C(Cc1n[nH]c2ccccc12)NC[C@@H]1CCCN(CCO)C1

>  <tags>  (40) 
{'openbind_xx01zvns2b_c1_knitwork_pure', 'fragmenstein_placed'}

>  <HIPPO Pose ID>  (40) 
33059

>  <ref_pdb>  (40) 
71

>  <smiles>  (40) 
C49281-P35

>  <fragmenstein_runtime>  (40) 
3.204607

>  <fragmenstein_outcome>  (40) 
acceptable

>  <fragmenstein_mode>  (40) 
expansion

>  <fragmenstein_error>  (40) 


>  <HIPPO Compound ID>  (40) 
8170

>  <Energy>  (40) 
69.635235

>  <scratch_subdir>  (40) 
/opt/xchem-fragalysis-2/maxwin/BulkDock/SCRATCH/511030/C49281-P35

$$$$
O=C(Cc1n[nH]c2ccccc12)NC[C@H]1CCCN(CCO)C1
     RDKit          3D

 23 25  0  0  0  0  0  0  0  0999 V2000
   -3.5617    3.7800  -16.2637 O   0  0  0  0  0  0  0  0  0  0  0  0
   -3.4852    4.9205  -16.0261 C   0  0  0  0  0  0  0  0  0  0  0  0
   -4.2297    6.0171  -16.7916 C   0  0  0  0  0  0  0  0  0  0  0  0
   -5.3497    5.5246  -17.6432 C   0  0  0  0  0  0  0  0  0  0  0  0
   -5.2760    5.6477  -18.9788 N   0  0  0  0  0  0  0  0  0  0  0  0
   -6.4780    5.2112  -19.4017 N   0  0  0  0  0  0  0  0  0  0  0  0
   -7.3357    4.8576  -18.3989 C   0  0  0  0  0  0  0  0  0  0  0  0
   -8.6663    4.4370  -18.4403 C   0  0  0  0  0  0  0  0  0  0  0  0
   -9.2979    4.2247  -17.2165 C   0  0  0  0  0  0  0  0  0  0  0  0
   -8.6161    4.4035  -16.0131 C   0  0  0  0  0  0  0  0  0  0  0  0
   -7.2816    4.8278  -15.9998 C   0  0  0  0  0  0  0  0  0  0  0  0
   -6.6283    5.0559  -17.2233 C   0  0  0  0  0  0  0  0  0  0  0  0
   -2.6772    5.6703  -14.9222 N   0  0  0  0  0  0  0  0  0  0  0  0
   -1.7312    5.1726  -13.9546 C   0  0  0  0  0  0  0  0  0  0  0  0
   -2.2165    3.9480  -13.1646 C   0  0  1  0  0  0  0  0  0  0  0  0
   -1.1424    3.5288  -12.1387 C   0  0  0  0  0  0  0  0  0  0  0  0
   -1.7353    3.1238  -10.7889 C   0  0  0  0  0  0  0  0  0  0  0  0
   -3.0183    2.3208  -10.9771 C   0  0  0  0  0  0  0  0  0  0  0  0
   -4.0636    3.0515  -11.7197 N   0  0  0  0  0  0  0  0  0  0  0  0
   -4.8386    2.0768  -12.5179 C   0  0  0  0  0  0  0  0  0  0  0  0
   -6.0698    2.6215  -13.2497 C   0  0  0  0  0  0  0  0  0  0  0  0
   -6.9141    1.5418  -13.6427 O   0  0  0  0  0  0  0  0  0  0  0  0
   -3.5629    4.2014  -12.4755 C   0  0  0  0  0  0  0  0  0  0  0  0
  1  2  2  0
  2  3  1  0
  3  4  1  0
  4  5  2  0
  5  6  1  0
  6  7  1  0
  7  8  2  0
  8  9  1  0
  9 10  2  0
 10 11  1  0
 11 12  2  0
  2 13  1  0
 13 14  1  0
 15 14  1  1
 15 16  1  0
 16 17  1  0
 17 18  1  0
 18 19  1  0
 19 20  1  0
 20 21  1  0
 21 22  1  0
 19 23  1  0
 12  4  1  0
 23 15  1  0
 12  7  1  0
M  END
>  <inchikey>  (41) 
ARRFOXUKDPWVLK-UHFFFAOYSA-N

>  <alias>  (41) 
O=C(Cc1n[nH]c2ccccc12)NC[C@H]1CCCN(CCO)C1

>  <tags>  (41) 
{'openbind_xx01zvns2b_c1_knitwork_pure', 'fragmenstein_placed'}

>  <HIPPO Pose ID>  (41) 
33060

>  <ref_pdb>  (41) 
71

>  <smiles>  (41) 
C49281-P33

>  <fragmenstein_runtime>  (41) 
2.462262

>  <fragmenstein_outcome>  (41) 
acceptable

>  <fragmenstein_mode>  (41) 
expansion

>  <fragmenstein_error>  (41) 


>  <HIPPO Compound ID>  (41) 
3704

>  <Energy>  (41) 
80.276901

>  <scratch_subdir>  (41) 
/opt/xchem-fragalysis-2/maxwin/BulkDock/SCRATCH/511030/C49281-P33

$$$$
CCOc1cccc(CNC(=O)Cc2n[nH]c3ccccc23)c1
     RDKit          3D

 23 25  0  0  0  0  0  0  0  0999 V2000
   -4.6174    2.0402  -12.8357 C   0  0  0  0  0  0  0  0  0  0  0  0
   -5.9199    2.4684  -13.4877 C   0  0  0  0  0  0  0  0  0  0  0  0
   -6.8378    2.9723  -12.5238 O   0  0  0  0  0  0  0  0  0  0  0  0
   -6.8249    4.3231  -12.3104 C   0  0  0  0  0  0  0  0  0  0  0  0
   -7.9360    4.8522  -11.6595 C   0  0  0  0  0  0  0  0  0  0  0  0
   -8.0399    6.2302  -11.4495 C   0  0  0  0  0  0  0  0  0  0  0  0
   -7.0398    7.0921  -11.9067 C   0  0  0  0  0  0  0  0  0  0  0  0
   -5.9100    6.5735  -12.5444 C   0  0  0  0  0  0  0  0  0  0  0  0
   -4.8203    7.4511  -13.0927 C   0  0  0  0  0  0  0  0  0  0  0  0
   -4.7547    7.3723  -14.5323 N   0  0  0  0  0  0  0  0  0  0  0  0
   -4.1179    6.2900  -15.4596 C   0  0  0  0  0  0  0  0  0  0  0  0
   -3.4852    5.3418  -15.1942 O   0  0  0  0  0  0  0  0  0  0  0  0
   -4.3624    6.7204  -16.9012 C   0  0  0  0  0  0  0  0  0  0  0  0
   -5.3512    5.9040  -17.6642 C   0  0  0  0  0  0  0  0  0  0  0  0
   -5.1514    5.7802  -18.9864 N   0  0  0  0  0  0  0  0  0  0  0  0
   -6.2621    5.1578  -19.4296 N   0  0  0  0  0  0  0  0  0  0  0  0
   -7.1860    4.9084  -18.4516 C   0  0  0  0  0  0  0  0  0  0  0  0
   -8.4792    4.3785  -18.5220 C   0  0  0  0  0  0  0  0  0  0  0  0
   -9.1958    4.2727  -17.3308 C   0  0  0  0  0  0  0  0  0  0  0  0
   -8.6235    4.6505  -16.1201 C   0  0  0  0  0  0  0  0  0  0  0  0
   -7.3380    5.2049  -16.0784 C   0  0  0  0  0  0  0  0  0  0  0  0
   -6.6017    5.3438  -17.2681 C   0  0  0  0  0  0  0  0  0  0  0  0
   -5.8012    5.1838  -12.6998 C   0  0  0  0  0  0  0  0  0  0  0  0
  1  2  1  0
  2  3  1  0
  3  4  1  0
  4  5  2  0
  5  6  1  0
  6  7  2  0
  7  8  1  0
  8  9  1  0
  9 10  1  0
 10 11  1  0
 11 12  2  0
 11 13  1  0
 13 14  1  0
 14 15  2  0
 15 16  1  0
 16 17  1  0
 17 18  2  0
 18 19  1  0
 19 20  2  0
 20 21  1  0
 21 22  2  0
  8 23  2  0
 23  4  1  0
 22 14  1  0
 22 17  1  0
M  END
>  <inchikey>  (42) 
YNLZXBGBNQZNJO-UHFFFAOYSA-N

>  <alias>  (42) 
CCOc1cccc(CNC(=O)Cc2n[nH]c3ccccc23)c1

>  <tags>  (42) 
{'openbind_xx01zvns2b_c1_knitwork_pure', 'fragmenstein_placed'}

>  <HIPPO Pose ID>  (42) 
33061

>  <ref_pdb>  (42) 
71

>  <smiles>  (42) 
C49282-P35

>  <fragmenstein_runtime>  (42) 
3.267009

>  <fragmenstein_outcome>  (42) 
acceptable

>  <fragmenstein_mode>  (42) 
expansion

>  <fragmenstein_error>  (42) 


>  <HIPPO Compound ID>  (42) 
7144

>  <Energy>  (42) 
59.18834

>  <scratch_subdir>  (42) 
/opt/xchem-fragalysis-2/maxwin/BulkDock/SCRATCH/511030/C49282-P35

$$$$
O=C(Cc1n[nH]c2ccccc12)NC[C@]1(CCO)CCOC1
     RDKit          3D

 22 24  0  0  0  0  0  0  0  0999 V2000
   -2.7678    4.5140  -15.7932 O   0  0  0  0  0  0  0  0  0  0  0  0
   -3.6661    5.1965  -15.4830 C   0  0  0  0  0  0  0  0  0  0  0  0
   -4.3307    6.1697  -16.4613 C   0  0  0  0  0  0  0  0  0  0  0  0
   -5.3063    5.5486  -17.4040 C   0  0  0  0  0  0  0  0  0  0  0  0
   -5.0389    5.5374  -18.7200 N   0  0  0  0  0  0  0  0  0  0  0  0
   -6.1671    5.0471  -19.2799 N   0  0  0  0  0  0  0  0  0  0  0  0
   -7.1710    4.8066  -18.3794 C   0  0  0  0  0  0  0  0  0  0  0  0
   -8.4932    4.3859  -18.5598 C   0  0  0  0  0  0  0  0  0  0  0  0
   -9.2894    4.2623  -17.4222 C   0  0  0  0  0  0  0  0  0  0  0  0
   -8.7675    4.5184  -16.1577 C   0  0  0  0  0  0  0  0  0  0  0  0
   -7.4456    4.9486  -15.9976 C   0  0  0  0  0  0  0  0  0  0  0  0
   -6.6299    5.0968  -17.1330 C   0  0  0  0  0  0  0  0  0  0  0  0
   -4.3427    5.4067  -14.0914 N   0  0  0  0  0  0  0  0  0  0  0  0
   -3.9870    4.8904  -12.7853 C   0  0  0  0  0  0  0  0  0  0  0  0
   -3.6283    3.3957  -12.6651 C   0  0  2  0  0  0  0  0  0  0  0  0
   -4.5735    2.4785  -13.4748 C   0  0  0  0  0  0  0  0  0  0  0  0
   -6.0612    2.6318  -13.1754 C   0  0  0  0  0  0  0  0  0  0  0  0
   -6.6304    1.3620  -12.8909 O   0  0  0  0  0  0  0  0  0  0  0  0
   -3.5774    2.9650  -11.1954 C   0  0  0  0  0  0  0  0  0  0  0  0
   -2.6175    1.7934  -11.2016 C   0  0  0  0  0  0  0  0  0  0  0  0
   -1.6609    2.0687  -12.2309 O   0  0  0  0  0  0  0  0  0  0  0  0
   -2.1739    3.1181  -13.0715 C   0  0  0  0  0  0  0  0  0  0  0  0
  1  2  2  0
  2  3  1  0
  3  4  1  0
  4  5  2  0
  5  6  1  0
  6  7  1  0
  7  8  2  0
  8  9  1  0
  9 10  2  0
 10 11  1  0
 11 12  2  0
  2 13  1  0
 13 14  1  0
 15 14  1  1
 15 16  1  0
 16 17  1  0
 17 18  1  0
 15 19  1  0
 19 20  1  0
 20 21  1  0
 21 22  1  0
 12  4  1  0
 22 15  1  0
 12  7  1  0
M  END
>  <inchikey>  (43) 
DOOVERXMSOBILH-UHFFFAOYSA-N

>  <alias>  (43) 
O=C(Cc1n[nH]c2ccccc12)NC[C@]1(CCO)CCOC1

>  <tags>  (43) 
{'openbind_xx01zvns2b_c1_knitwork_pure', 'fragmenstein_placed'}

>  <HIPPO Pose ID>  (43) 
33062

>  <ref_pdb>  (43) 
71

>  <smiles>  (43) 
C49283-P35

>  <fragmenstein_runtime>  (43) 
2.514186

>  <fragmenstein_outcome>  (43) 
acceptable

>  <fragmenstein_mode>  (43) 
expansion

>  <fragmenstein_error>  (43) 


>  <HIPPO Compound ID>  (43) 
50148

>  <Energy>  (43) 
71.02614

>  <scratch_subdir>  (43) 
/opt/xchem-fragalysis-2/maxwin/BulkDock/SCRATCH/511030/C49283-P35

$$$$
O=C(Cc1n[nH]c2ccccc12)NCC1(CCO)CCOCC1
     RDKit          3D

 23 25  0  0  0  0  0  0  0  0999 V2000
   -5.0926    6.8495  -14.8075 O   0  0  0  0  0  0  0  0  0  0  0  0
   -4.4698    5.9129  -15.1286 C   0  0  0  0  0  0  0  0  0  0  0  0
   -4.1287    5.6187  -16.5921 C   0  0  0  0  0  0  0  0  0  0  0  0
   -5.2969    5.3282  -17.4783 C   0  0  0  0  0  0  0  0  0  0  0  0
   -5.0767    5.3209  -18.8051 N   0  0  0  0  0  0  0  0  0  0  0  0
   -6.2821    5.0232  -19.3354 N   0  0  0  0  0  0  0  0  0  0  0  0
   -7.2569    4.7921  -18.4031 C   0  0  0  0  0  0  0  0  0  0  0  0
   -8.6041    4.4409  -18.5461 C   0  0  0  0  0  0  0  0  0  0  0  0
   -9.3633    4.3107  -17.3849 C   0  0  0  0  0  0  0  0  0  0  0  0
   -8.7869    4.5103  -16.1349 C   0  0  0  0  0  0  0  0  0  0  0  0
   -7.4395    4.8663  -16.0137 C   0  0  0  0  0  0  0  0  0  0  0  0
   -6.6509    5.0040  -17.1705 C   0  0  0  0  0  0  0  0  0  0  0  0
   -3.8247    4.7859  -14.2667 N   0  0  0  0  0  0  0  0  0  0  0  0
   -3.7356    4.6368  -12.8301 C   0  0  0  0  0  0  0  0  0  0  0  0
   -3.6500    3.1724  -12.3075 C   0  0  0  0  0  0  0  0  0  0  0  0
   -5.0441    2.4779  -12.2942 C   0  0  0  0  0  0  0  0  0  0  0  0
   -5.9470    2.7329  -13.4890 C   0  0  0  0  0  0  0  0  0  0  0  0
   -6.9095    1.6930  -13.5917 O   0  0  0  0  0  0  0  0  0  0  0  0
   -2.6492    2.3010  -13.1095 C   0  0  0  0  0  0  0  0  0  0  0  0
   -1.2095    2.7633  -12.9147 C   0  0  0  0  0  0  0  0  0  0  0  0
   -0.8447    2.7237  -11.5401 O   0  0  0  0  0  0  0  0  0  0  0  0
   -1.6569    3.5603  -10.7230 C   0  0  0  0  0  0  0  0  0  0  0  0
   -3.1350    3.1942  -10.8380 C   0  0  0  0  0  0  0  0  0  0  0  0
  1  2  2  0
  2  3  1  0
  3  4  1  0
  4  5  2  0
  5  6  1  0
  6  7  1  0
  7  8  2  0
  8  9  1  0
  9 10  2  0
 10 11  1  0
 11 12  2  0
  2 13  1  0
 13 14  1  0
 14 15  1  0
 15 16  1  0
 16 17  1  0
 17 18  1  0
 15 19  1  0
 19 20  1  0
 20 21  1  0
 21 22  1  0
 22 23  1  0
 12  4  1  0
 23 15  1  0
 12  7  1  0
M  END
>  <inchikey>  (44) 
QLRZQBIMFGIBBL-UHFFFAOYSA-N

>  <alias>  (44) 
O=C(Cc1n[nH]c2ccccc12)NCC1(CCO)CCOCC1

>  <tags>  (44) 
{'openbind_xx01zvns2b_c1_knitwork_pure', 'fragmenstein_placed'}

>  <HIPPO Pose ID>  (44) 
33063

>  <ref_pdb>  (44) 
71

>  <smiles>  (44) 
C49284-P35

>  <fragmenstein_runtime>  (44) 
5.48608

>  <fragmenstein_outcome>  (44) 
acceptable

>  <fragmenstein_mode>  (44) 
expansion

>  <fragmenstein_error>  (44) 


>  <HIPPO Compound ID>  (44) 
51869

>  <Energy>  (44) 
67.543489

>  <scratch_subdir>  (44) 
/opt/xchem-fragalysis-2/maxwin/BulkDock/SCRATCH/511030/C49284-P35

$$$$
O=C(Cc1n[nH]c2ccccc12)NCc1cnn(CCO)c1
     RDKit          3D

 22 24  0  0  0  0  0  0  0  0999 V2000
   -4.9095    7.2060  -15.4810 O   0  0  0  0  0  0  0  0  0  0  0  0
   -4.0273    6.4858  -15.7414 C   0  0  0  0  0  0  0  0  0  0  0  0
   -3.9307    5.6578  -17.0215 C   0  0  0  0  0  0  0  0  0  0  0  0
   -5.2093    5.4505  -17.7592 C   0  0  0  0  0  0  0  0  0  0  0  0
   -5.1608    5.4922  -19.0991 N   0  0  0  0  0  0  0  0  0  0  0  0
   -6.4181    5.1861  -19.4766 N   0  0  0  0  0  0  0  0  0  0  0  0
   -7.2636    4.9082  -18.4374 C   0  0  0  0  0  0  0  0  0  0  0  0
   -8.6121    4.5356  -18.4243 C   0  0  0  0  0  0  0  0  0  0  0  0
   -9.2152    4.3581  -17.1800 C   0  0  0  0  0  0  0  0  0  0  0  0
   -8.4909    4.5370  -16.0037 C   0  0  0  0  0  0  0  0  0  0  0  0
   -7.1396    4.9096  -16.0417 C   0  0  0  0  0  0  0  0  0  0  0  0
   -6.5095    5.0972  -17.2868 C   0  0  0  0  0  0  0  0  0  0  0  0
   -2.7851    6.0658  -14.8987 N   0  0  0  0  0  0  0  0  0  0  0  0
   -2.4332    6.3725  -13.5392 C   0  0  0  0  0  0  0  0  0  0  0  0
   -3.1319    5.3577  -12.7116 C   0  0  0  0  0  0  0  0  0  0  0  0
   -3.9110    5.5680  -11.5518 C   0  0  0  0  0  0  0  0  0  0  0  0
   -4.5480    4.4635  -11.1546 N   0  0  0  0  0  0  0  0  0  0  0  0
   -4.2172    3.5538  -12.0898 N   0  0  0  0  0  0  0  0  0  0  0  0
   -5.0319    2.3712  -12.2960 C   0  0  0  0  0  0  0  0  0  0  0  0
   -6.1500    2.6882  -13.2799 C   0  0  0  0  0  0  0  0  0  0  0  0
   -6.8703    1.5168  -13.6269 O   0  0  0  0  0  0  0  0  0  0  0  0
   -3.2585    4.0016  -12.9542 C   0  0  0  0  0  0  0  0  0  0  0  0
  1  2  2  0
  2  3  1  0
  3  4  1  0
  4  5  2  0
  5  6  1  0
  6  7  1  0
  7  8  2  0
  8  9  1  0
  9 10  2  0
 10 11  1  0
 11 12  2  0
  2 13  1  0
 13 14  1  0
 14 15  1  0
 15 16  1  0
 16 17  2  0
 17 18  1  0
 18 19  1  0
 19 20  1  0
 20 21  1  0
 18 22  1  0
 12  4  1  0
 22 15  2  0
 12  7  1  0
M  END
>  <inchikey>  (45) 
JIVHVPBGFPPTMU-UHFFFAOYSA-N

>  <alias>  (45) 
O=C(Cc1n[nH]c2ccccc12)NCc1cnn(CCO)c1

>  <tags>  (45) 
{'openbind_xx01zvns2b_c1_knitwork_pure', 'fragmenstein_placed'}

>  <HIPPO Pose ID>  (45) 
33065

>  <ref_pdb>  (45) 
71

>  <smiles>  (45) 
C49286-P35

>  <fragmenstein_runtime>  (45) 
2.198471

>  <fragmenstein_outcome>  (45) 
acceptable

>  <fragmenstein_mode>  (45) 
expansion

>  <fragmenstein_error>  (45) 


>  <HIPPO Compound ID>  (45) 
834

>  <Energy>  (45) 
52.911601

>  <scratch_subdir>  (45) 
/opt/xchem-fragalysis-2/maxwin/BulkDock/SCRATCH/511030/C49286-P35

$$$$
C=CC1(CNC(=O)Cc2n[nH]c3ccccc23)CCC1
     RDKit          3D

 20 22  0  0  0  0  0  0  0  0999 V2000
   -6.4885    2.2466  -13.3994 C   0  0  0  0  0  0  0  0  0  0  0  0
   -6.0373    3.2781  -12.6851 C   0  0  0  0  0  0  0  0  0  0  0  0
   -4.5947    3.4705  -12.3176 C   0  0  0  0  0  0  0  0  0  0  0  0
   -4.0242    4.7660  -12.9195 C   0  0  0  0  0  0  0  0  0  0  0  0
   -4.0600    4.6792  -14.3583 N   0  0  0  0  0  0  0  0  0  0  0  0
   -4.1759    5.7971  -15.4354 C   0  0  0  0  0  0  0  0  0  0  0  0
   -4.3374    6.9493  -15.3168 O   0  0  0  0  0  0  0  0  0  0  0  0
   -3.9979    5.1338  -16.7990 C   0  0  0  0  0  0  0  0  0  0  0  0
   -5.2375    5.1059  -17.6242 C   0  0  0  0  0  0  0  0  0  0  0  0
   -5.1150    5.2248  -18.9559 N   0  0  0  0  0  0  0  0  0  0  0  0
   -6.3729    5.0508  -19.4123 N   0  0  0  0  0  0  0  0  0  0  0  0
   -7.2956    4.8122  -18.4297 C   0  0  0  0  0  0  0  0  0  0  0  0
   -8.6687    4.5504  -18.4950 C   0  0  0  0  0  0  0  0  0  0  0  0
   -9.3479    4.3737  -17.2912 C   0  0  0  0  0  0  0  0  0  0  0  0
   -8.6722    4.4459  -16.0767 C   0  0  0  0  0  0  0  0  0  0  0  0
   -7.2949    4.6942  -16.0335 C   0  0  0  0  0  0  0  0  0  0  0  0
   -6.5895    4.8789  -17.2358 C   0  0  0  0  0  0  0  0  0  0  0  0
   -4.3892    3.4218  -10.7613 C   0  0  0  0  0  0  0  0  0  0  0  0
   -3.0666    2.6720  -11.0056 C   0  0  0  0  0  0  0  0  0  0  0  0
   -3.6435    2.2267  -12.3622 C   0  0  0  0  0  0  0  0  0  0  0  0
  1  2  2  0
  2  3  1  0
  3  4  1  0
  4  5  1  0
  5  6  1  0
  6  7  2  0
  6  8  1  0
  8  9  1  0
  9 10  2  0
 10 11  1  0
 11 12  1  0
 12 13  2  0
 13 14  1  0
 14 15  2  0
 15 16  1  0
 16 17  2  0
  3 18  1  0
 18 19  1  0
 19 20  1  0
 20  3  1  0
 17  9  1  0
 17 12  1  0
M  END
>  <inchikey>  (46) 
BZHIWEOVEJOKOK-UHFFFAOYSA-N

>  <alias>  (46) 
C=CC1(CNC(=O)Cc2n[nH]c3ccccc23)CCC1

>  <tags>  (46) 
{'openbind_xx01zvns2b_c1_knitwork_pure', 'fragmenstein_placed'}

>  <HIPPO Pose ID>  (46) 
33066

>  <ref_pdb>  (46) 
71

>  <smiles>  (46) 
C49287-P35

>  <fragmenstein_runtime>  (46) 
3.190723

>  <fragmenstein_outcome>  (46) 
acceptable

>  <fragmenstein_mode>  (46) 
expansion

>  <fragmenstein_error>  (46) 


>  <HIPPO Compound ID>  (46) 
9911

>  <Energy>  (46) 
78.895721

>  <scratch_subdir>  (46) 
/opt/xchem-fragalysis-2/maxwin/BulkDock/SCRATCH/511030/C49287-P35

$$$$
CN1CC[C@H](CNC(=O)Cc2n[nH]c3ccccc23)C1=O
     RDKit          3D

 21 23  0  0  0  0  0  0  0  0999 V2000
   -4.6738    0.9998  -10.3336 C   0  0  0  0  0  0  0  0  0  0  0  0
   -5.0120    2.0859  -11.2196 N   0  0  0  0  0  0  0  0  0  0  0  0
   -5.8325    1.8688  -12.3808 C   0  0  0  0  0  0  0  0  0  0  0  0
   -5.9914    3.2470  -12.9726 C   0  0  0  0  0  0  0  0  0  0  0  0
   -4.7162    3.9839  -12.5509 C   0  0  2  0  0  0  0  0  0  0  0  0
   -3.6239    3.9829  -13.6036 C   0  0  0  0  0  0  0  0  0  0  0  0
   -3.9778    4.8317  -14.7139 N   0  0  0  0  0  0  0  0  0  0  0  0
   -3.5201    4.7946  -16.1963 C   0  0  0  0  0  0  0  0  0  0  0  0
   -2.8475    4.0256  -16.7609 O   0  0  0  0  0  0  0  0  0  0  0  0
   -4.1625    5.9926  -16.8915 C   0  0  0  0  0  0  0  0  0  0  0  0
   -5.3196    5.5680  -17.7221 C   0  0  0  0  0  0  0  0  0  0  0  0
   -5.2209    5.6358  -19.0557 N   0  0  0  0  0  0  0  0  0  0  0  0
   -6.4104    5.1733  -19.4883 N   0  0  0  0  0  0  0  0  0  0  0  0
   -7.2995    4.8942  -18.4846 C   0  0  0  0  0  0  0  0  0  0  0  0
   -8.6319    4.4709  -18.5235 C   0  0  0  0  0  0  0  0  0  0  0  0
   -9.2903    4.3129  -17.3050 C   0  0  0  0  0  0  0  0  0  0  0  0
   -8.6291    4.5439  -16.1014 C   0  0  0  0  0  0  0  0  0  0  0  0
   -7.2943    4.9689  -16.0855 C   0  0  0  0  0  0  0  0  0  0  0  0
   -6.6153    5.1474  -17.3044 C   0  0  0  0  0  0  0  0  0  0  0  0
   -4.2411    3.2270  -11.3344 C   0  0  0  0  0  0  0  0  0  0  0  0
   -3.3093    3.5667  -10.6223 O   0  0  0  0  0  0  0  0  0  0  0  0
  1  2  1  0
  2  3  1  0
  3  4  1  0
  4  5  1  0
  5  6  1  6
  6  7  1  0
  7  8  1  0
  8  9  2  0
  8 10  1  0
 10 11  1  0
 11 12  2  0
 12 13  1  0
 13 14  1  0
 14 15  2  0
 15 16  1  0
 16 17  2  0
 17 18  1  0
 18 19  2  0
  5 20  1  0
 20 21  2  0
 20  2  1  0
 19 11  1  0
 19 14  1  0
M  END
>  <inchikey>  (47) 
HEUOYJDCAULSSE-UHFFFAOYSA-N

>  <alias>  (47) 
CN1CC[C@H](CNC(=O)Cc2n[nH]c3ccccc23)C1=O

>  <tags>  (47) 
{'openbind_xx01zvns2b_c1_knitwork_pure', 'fragmenstein_placed'}

>  <HIPPO Pose ID>  (47) 
33068

>  <ref_pdb>  (47) 
71

>  <smiles>  (47) 
C49289-P35

>  <fragmenstein_runtime>  (47) 
5.623098

>  <fragmenstein_outcome>  (47) 
acceptable

>  <fragmenstein_mode>  (47) 
expansion

>  <fragmenstein_error>  (47) 


>  <HIPPO Compound ID>  (47) 
14573

>  <Energy>  (47) 
29.506716

>  <scratch_subdir>  (47) 
/opt/xchem-fragalysis-2/maxwin/BulkDock/SCRATCH/511030/C49289-P35

$$$$
CCc1nc(=N)c(CNC(=O)Cc2n[nH]c3ccccc23)c[nH]1
     RDKit          3D

 23 25  0  0  0  0  0  0  0  0999 V2000
   -8.4325    3.2521   -9.2921 C   0  0  0  0  0  0  0  0  0  0  0  0
   -7.6555    4.3720   -9.9595 C   0  0  0  0  0  0  0  0  0  0  0  0
   -6.6453    3.8039  -10.9335 C   0  0  0  0  0  0  0  0  0  0  0  0
   -7.0627    3.4319  -12.1085 N   0  0  0  0  0  0  0  0  0  0  0  0
   -6.1507    2.8072  -12.9074 C   0  0  0  0  0  0  0  0  0  0  0  0
   -6.6480    2.0314  -13.7947 N   0  0  0  0  0  0  0  0  0  0  0  0
   -4.7038    3.0860  -12.7310 C   0  0  0  0  0  0  0  0  0  0  0  0
   -3.8027    2.9648  -13.9097 C   0  0  0  0  0  0  0  0  0  0  0  0
   -4.1554    4.0403  -14.8060 N   0  0  0  0  0  0  0  0  0  0  0  0
   -3.2964    4.8122  -15.8381 C   0  0  0  0  0  0  0  0  0  0  0  0
   -2.1532    4.7500  -16.0686 O   0  0  0  0  0  0  0  0  0  0  0  0
   -4.2098    5.8396  -16.5130 C   0  0  0  0  0  0  0  0  0  0  0  0
   -5.2407    5.3134  -17.4518 C   0  0  0  0  0  0  0  0  0  0  0  0
   -4.9814    5.2736  -18.7675 N   0  0  0  0  0  0  0  0  0  0  0  0
   -6.1562    4.8999  -19.3205 N   0  0  0  0  0  0  0  0  0  0  0  0
   -7.1660    4.7186  -18.4127 C   0  0  0  0  0  0  0  0  0  0  0  0
   -8.5121    4.3744  -18.5819 C   0  0  0  0  0  0  0  0  0  0  0  0
   -9.3075    4.2977  -17.4391 C   0  0  0  0  0  0  0  0  0  0  0  0
   -8.7682    4.5461  -16.1807 C   0  0  0  0  0  0  0  0  0  0  0  0
   -7.4249    4.9089  -16.0309 C   0  0  0  0  0  0  0  0  0  0  0  0
   -6.6008    4.9809  -17.1709 C   0  0  0  0  0  0  0  0  0  0  0  0
   -4.3645    3.4753  -11.4940 C   0  0  0  0  0  0  0  0  0  0  0  0
   -5.3249    3.7189  -10.5469 N   0  0  0  0  0  0  0  0  0  0  0  0
  1  2  1  0
  2  3  1  0
  3  4  2  0
  4  5  1  0
  5  6  2  3
  5  7  1  0
  7  8  1  0
  8  9  1  0
  9 10  1  0
 10 11  2  0
 10 12  1  0
 12 13  1  0
 13 14  2  0
 14 15  1  0
 15 16  1  0
 16 17  2  0
 17 18  1  0
 18 19  2  0
 19 20  1  0
 20 21  2  0
  7 22  2  0
 22 23  1  0
 23  3  1  0
 21 13  1  0
 21 16  1  0
M  END
>  <inchikey>  (48) 
ZDPJIYSHTYCDLT-UHFFFAOYSA-N

>  <alias>  (48) 
CCc1nc(=N)c(CNC(=O)Cc2n[nH]c3ccccc23)c[nH]1

>  <tags>  (48) 
{'openbind_xx01zvns2b_c1_knitwork_pure', 'fragmenstein_placed'}

>  <HIPPO Pose ID>  (48) 
33084

>  <ref_pdb>  (48) 
71

>  <smiles>  (48) 
C49304-P35

>  <fragmenstein_runtime>  (48) 
3.183463

>  <fragmenstein_outcome>  (48) 
acceptable

>  <fragmenstein_mode>  (48) 
expansion

>  <fragmenstein_error>  (48) 


>  <HIPPO Compound ID>  (48) 
15238

>  <Energy>  (48) 
-5.906852

>  <scratch_subdir>  (48) 
/opt/xchem-fragalysis-2/maxwin/BulkDock/SCRATCH/511030/C49304-P35

$$$$
O=C(Cc1n[nH]c2ccccc12)NCC1([C@H]2CCCO2)CCC1
     RDKit          3D

 23 26  0  0  0  0  0  0  0  0999 V2000
   -4.6476    6.5160  -15.1250 O   0  0  0  0  0  0  0  0  0  0  0  0
   -4.0298    5.5927  -15.4904 C   0  0  0  0  0  0  0  0  0  0  0  0
   -3.9779    5.1251  -16.9423 C   0  0  0  0  0  0  0  0  0  0  0  0
   -5.2608    5.1601  -17.6973 C   0  0  0  0  0  0  0  0  0  0  0  0
   -5.1797    5.3177  -19.0284 N   0  0  0  0  0  0  0  0  0  0  0  0
   -6.4440    5.1244  -19.4528 N   0  0  0  0  0  0  0  0  0  0  0  0
   -7.3361    4.8576  -18.4511 C   0  0  0  0  0  0  0  0  0  0  0  0
   -8.7053    4.5717  -18.4890 C   0  0  0  0  0  0  0  0  0  0  0  0
   -9.3540    4.3701  -17.2732 C   0  0  0  0  0  0  0  0  0  0  0  0
   -8.6539    4.4480  -16.0737 C   0  0  0  0  0  0  0  0  0  0  0  0
   -7.2810    4.7228  -16.0608 C   0  0  0  0  0  0  0  0  0  0  0  0
   -6.6014    4.9243  -17.2747 C   0  0  0  0  0  0  0  0  0  0  0  0
   -3.0735    4.6413  -14.7046 N   0  0  0  0  0  0  0  0  0  0  0  0
   -2.6166    4.6948  -13.3427 C   0  0  0  0  0  0  0  0  0  0  0  0
   -3.0409    3.4101  -12.6037 C   0  0  0  0  0  0  0  0  0  0  0  0
   -4.4660    3.5328  -12.0311 C   0  0  1  0  0  0  0  0  0  0  0  0
   -5.5724    3.3734  -13.0632 C   0  0  0  0  0  0  0  0  0  0  0  0
   -6.1938    2.0419  -12.7472 C   0  0  0  0  0  0  0  0  0  0  0  0
   -5.9451    1.8949  -11.2665 C   0  0  0  0  0  0  0  0  0  0  0  0
   -4.6859    2.5319  -11.0230 O   0  0  0  0  0  0  0  0  0  0  0  0
   -1.9440    3.0617  -11.5274 C   0  0  0  0  0  0  0  0  0  0  0  0
   -1.2923    2.1292  -12.5690 C   0  0  0  0  0  0  0  0  0  0  0  0
   -2.6688    2.0262  -13.2469 C   0  0  0  0  0  0  0  0  0  0  0  0
  1  2  2  0
  2  3  1  0
  3  4  1  0
  4  5  2  0
  5  6  1  0
  6  7  1  0
  7  8  2  0
  8  9  1  0
  9 10  2  0
 10 11  1  0
 11 12  2  0
  2 13  1  0
 13 14  1  0
 14 15  1  0
 16 15  1  6
 16 17  1  0
 17 18  1  0
 18 19  1  0
 19 20  1  0
 15 21  1  0
 21 22  1  0
 22 23  1  0
 12  4  1  0
 23 15  1  0
 12  7  1  0
 20 16  1  0
M  END
>  <inchikey>  (49) 
PXYKJQADMALPOR-UHFFFAOYSA-N

>  <alias>  (49) 
O=C(Cc1n[nH]c2ccccc12)NCC1([C@H]2CCCO2)CCC1

>  <tags>  (49) 
{'openbind_xx01zvns2b_c1_knitwork_pure', 'fragmenstein_placed'}

>  <HIPPO Pose ID>  (49) 
33085

>  <ref_pdb>  (49) 
71

>  <smiles>  (49) 
C49305-P35

>  <fragmenstein_runtime>  (49) 
10.444706

>  <fragmenstein_outcome>  (49) 
acceptable

>  <fragmenstein_mode>  (49) 
expansion

>  <fragmenstein_error>  (49) 


>  <HIPPO Compound ID>  (49) 
48859

>  <Energy>  (49) 
71.86214

>  <scratch_subdir>  (49) 
/opt/xchem-fragalysis-2/maxwin/BulkDock/SCRATCH/511030/C49305-P35

$$$$
O=c1cc(-c2ccccn2)[nH][nH]1
     RDKit          3D

 12 13  0  0  0  0  0  0  0  0999 V2000
   -9.8897    3.8339  -17.7294 O   0  0  0  0  0  0  0  0  0  0  0  0
   -8.9315    4.3013  -17.1431 C   0  0  0  0  0  0  0  0  0  0  0  0
   -7.7066    4.7658  -17.8025 C   0  0  0  0  0  0  0  0  0  0  0  0
   -6.8077    4.8656  -16.8148 C   0  0  0  0  0  0  0  0  0  0  0  0
   -5.3717    5.0778  -17.0612 C   0  0  0  0  0  0  0  0  0  0  0  0
   -4.4237    4.8757  -16.0645 C   0  0  0  0  0  0  0  0  0  0  0  0
   -3.0720    4.9847  -16.3867 C   0  0  0  0  0  0  0  0  0  0  0  0
   -2.6996    5.2830  -17.6919 C   0  0  0  0  0  0  0  0  0  0  0  0
   -3.7004    5.4771  -18.6239 C   0  0  0  0  0  0  0  0  0  0  0  0
   -5.0137    5.3949  -18.3326 N   0  0  0  0  0  0  0  0  0  0  0  0
   -7.3524    4.6192  -15.5555 N   0  0  0  0  0  0  0  0  0  0  0  0
   -8.7290    4.3884  -15.7684 N   0  0  0  0  0  0  0  0  0  0  0  0
  1  2  2  0
  2  3  1  0
  3  4  2  0
  4  5  1  0
  5  6  2  0
  6  7  1  0
  7  8  2  0
  8  9  1  0
  9 10  2  0
  4 11  1  0
 11 12  1  0
 12  2  1  0
 10  5  1  0
M  END
>  <inchikey>  (50) 
ZIAVYWRMSWKJQQ-UHFFFAOYSA-N

>  <alias>  (50) 
O=c1cc(-c2ccccn2)[nH][nH]1

>  <tags>  (50) 
{'openbind_xx01zvns2b_c1_knitwork_pure', 'fragmenstein_placed'}

>  <HIPPO Pose ID>  (50) 
33325

>  <ref_pdb>  (50) 
71

>  <smiles>  (50) 
C49464-P32

>  <fragmenstein_runtime>  (50) 
0.753084

>  <fragmenstein_outcome>  (50) 
acceptable

>  <fragmenstein_mode>  (50) 
expansion

>  <fragmenstein_error>  (50) 


>  <HIPPO Compound ID>  (50) 
3980

>  <Energy>  (50) 
49.652573

>  <scratch_subdir>  (50) 
/opt/xchem-fragalysis-2/maxwin/BulkDock/SCRATCH/511030/C49464-P32

$$$$
COCCn1ccnc1NC(=O)c1cn2ccccc2n1
     RDKit          3D

 21 23  0  0  0  0  0  0  0  0999 V2000
   -0.4067    6.1811  -21.4009 C   0  0  0  0  0  0  0  0  0  0  0  0
    0.6889    5.6496  -20.6647 O   0  0  0  0  0  0  0  0  0  0  0  0
    0.3458    5.3296  -19.3117 C   0  0  0  0  0  0  0  0  0  0  0  0
    0.0540    6.5559  -18.4488 C   0  0  0  0  0  0  0  0  0  0  0  0
    0.0280    6.2385  -17.0365 N   0  0  0  0  0  0  0  0  0  0  0  0
    1.1658    6.2853  -16.2598 C   0  0  0  0  0  0  0  0  0  0  0  0
    0.7497    6.0159  -14.9834 C   0  0  0  0  0  0  0  0  0  0  0  0
   -0.5988    5.8052  -14.9617 N   0  0  0  0  0  0  0  0  0  0  0  0
   -1.0213    5.9234  -16.2047 C   0  0  0  0  0  0  0  0  0  0  0  0
   -2.3404    5.7364  -16.4753 N   0  0  0  0  0  0  0  0  0  0  0  0
   -3.0752    5.5725  -17.8249 C   0  0  0  0  0  0  0  0  0  0  0  0
   -2.6742    5.6494  -18.9194 O   0  0  0  0  0  0  0  0  0  0  0  0
   -4.5202    5.2824  -17.5933 C   0  0  0  0  0  0  0  0  0  0  0  0
   -5.2188    5.1572  -16.4016 C   0  0  0  0  0  0  0  0  0  0  0  0
   -6.5185    4.8649  -16.7419 N   0  0  0  0  0  0  0  0  0  0  0  0
   -7.6101    4.6305  -15.9132 C   0  0  0  0  0  0  0  0  0  0  0  0
   -8.8007    4.3731  -16.4777 C   0  0  0  0  0  0  0  0  0  0  0  0
   -8.9171    4.3491  -17.9270 C   0  0  0  0  0  0  0  0  0  0  0  0
   -7.8397    4.5405  -18.7119 C   0  0  0  0  0  0  0  0  0  0  0  0
   -6.5759    4.8328  -18.1262 C   0  0  0  0  0  0  0  0  0  0  0  0
   -5.3973    5.0937  -18.6518 N   0  0  0  0  0  0  0  0  0  0  0  0
  1  2  1  0
  2  3  1  0
  3  4  1  0
  4  5  1  0
  5  6  1  0
  6  7  2  0
  7  8  1  0
  8  9  2  0
  9 10  1  0
 10 11  1  0
 11 12  2  0
 11 13  1  0
 13 14  2  0
 14 15  1  0
 15 16  1  0
 16 17  2  0
 17 18  1  0
 18 19  2  0
 19 20  1  0
 20 21  2  0
  9  5  1  0
 21 13  1  0
 20 15  1  0
M  END
>  <inchikey>  (51) 
FAKMOXMLGVSVJU-UHFFFAOYSA-N

>  <alias>  (51) 
COCCn1ccnc1NC(=O)c1cn2ccccc2n1

>  <tags>  (51) 
{'openbind_xx01zvns2b_c1_knitwork_pure', 'fragmenstein_placed'}

>  <HIPPO Pose ID>  (51) 
33436

>  <ref_pdb>  (51) 
71

>  <smiles>  (51) 
C17790-P44

>  <fragmenstein_runtime>  (51) 
2.725377

>  <fragmenstein_outcome>  (51) 
acceptable

>  <fragmenstein_mode>  (51) 
expansion

>  <fragmenstein_error>  (51) 


>  <HIPPO Compound ID>  (51) 
9884

>  <Energy>  (51) 
52.751385

>  <scratch_subdir>  (51) 
/opt/xchem-fragalysis-2/maxwin/BulkDock/SCRATCH/511030/C17790-P44

$$$$
FC(F)(F)c1nccn1Cc1cn2ccccc2n1
     RDKit          3D

 19 21  0  0  0  0  0  0  0  0999 V2000
   -5.3316    6.8780  -21.1363 F   0  0  0  0  0  0  0  0  0  0  0  0
   -4.2159    7.2792  -20.4889 C   0  0  0  0  0  0  0  0  0  0  0  0
   -3.7317    8.3371  -21.2099 F   0  0  0  0  0  0  0  0  0  0  0  0
   -4.5981    7.8278  -19.3015 F   0  0  0  0  0  0  0  0  0  0  0  0
   -3.1514    6.2193  -20.3543 C   0  0  0  0  0  0  0  0  0  0  0  0
   -2.3530    5.7655  -21.3275 N   0  0  0  0  0  0  0  0  0  0  0  0
   -1.3770    5.0227  -20.7168 C   0  0  0  0  0  0  0  0  0  0  0  0
   -1.6374    4.9230  -19.3809 C   0  0  0  0  0  0  0  0  0  0  0  0
   -2.7963    5.6236  -19.1571 N   0  0  0  0  0  0  0  0  0  0  0  0
   -3.3413    5.8508  -17.8236 C   0  0  0  0  0  0  0  0  0  0  0  0
   -4.7312    5.3713  -17.6285 C   0  0  0  0  0  0  0  0  0  0  0  0
   -5.3753    5.1439  -16.4283 C   0  0  0  0  0  0  0  0  0  0  0  0
   -6.6627    4.8075  -16.7535 N   0  0  0  0  0  0  0  0  0  0  0  0
   -7.7298    4.5157  -15.9158 C   0  0  0  0  0  0  0  0  0  0  0  0
   -8.9203    4.2443  -16.4716 C   0  0  0  0  0  0  0  0  0  0  0  0
   -9.0619    4.2568  -17.9178 C   0  0  0  0  0  0  0  0  0  0  0  0
   -8.0048    4.5002  -18.7144 C   0  0  0  0  0  0  0  0  0  0  0  0
   -6.7437    4.8207  -18.1401 C   0  0  0  0  0  0  0  0  0  0  0  0
   -5.5915    5.1658  -18.6781 N   0  0  0  0  0  0  0  0  0  0  0  0
  1  2  1  0
  2  3  1  0
  2  4  1  0
  2  5  1  0
  5  6  2  0
  6  7  1  0
  7  8  2  0
  8  9  1  0
  9 10  1  0
 10 11  1  0
 11 12  2  0
 12 13  1  0
 13 14  1  0
 14 15  2  0
 15 16  1  0
 16 17  2  0
 17 18  1  0
 18 19  2  0
  9  5  1  0
 19 11  1  0
 18 13  1  0
M  END
>  <inchikey>  (52) 
RYZZPSWQFIFVKZ-UHFFFAOYSA-N

>  <alias>  (52) 
FC(F)(F)c1nccn1Cc1cn2ccccc2n1

>  <tags>  (52) 
{'openbind_xx01zvns2b_c1_knitwork_pure', 'fragmenstein_placed'}

>  <HIPPO Pose ID>  (52) 
33442

>  <ref_pdb>  (52) 
71

>  <smiles>  (52) 
C17798-P44

>  <fragmenstein_runtime>  (52) 
1.91943

>  <fragmenstein_outcome>  (52) 
acceptable

>  <fragmenstein_mode>  (52) 
expansion

>  <fragmenstein_error>  (52) 


>  <HIPPO Compound ID>  (52) 
51002

>  <Energy>  (52) 
85.270849

>  <scratch_subdir>  (52) 
/opt/xchem-fragalysis-2/maxwin/BulkDock/SCRATCH/511030/C17798-P44

$$$$
O=Cc1nccn1Cc1cn2ccccc2n1
     RDKit          3D

 17 19  0  0  0  0  0  0  0  0999 V2000
   -0.3575    5.0402  -18.6846 O   0  0  0  0  0  0  0  0  0  0  0  0
   -0.6938    5.1666  -19.8593 C   0  0  0  0  0  0  0  0  0  0  0  0
   -1.9631    5.7056  -20.2866 C   0  0  0  0  0  0  0  0  0  0  0  0
   -2.1863    6.1055  -21.5299 N   0  0  0  0  0  0  0  0  0  0  0  0
   -3.3482    6.8364  -21.4706 C   0  0  0  0  0  0  0  0  0  0  0  0
   -3.8986    6.7631  -20.2171 C   0  0  0  0  0  0  0  0  0  0  0  0
   -3.0796    5.9241  -19.5046 N   0  0  0  0  0  0  0  0  0  0  0  0
   -3.2851    5.4019  -18.1544 C   0  0  0  0  0  0  0  0  0  0  0  0
   -4.7138    5.1778  -17.7866 C   0  0  0  0  0  0  0  0  0  0  0  0
   -5.2658    5.1182  -16.5222 C   0  0  0  0  0  0  0  0  0  0  0  0
   -6.5951    4.8376  -16.7078 N   0  0  0  0  0  0  0  0  0  0  0  0
   -7.5884    4.6367  -15.7613 C   0  0  0  0  0  0  0  0  0  0  0  0
   -8.8352    4.3897  -16.1894 C   0  0  0  0  0  0  0  0  0  0  0  0
   -9.1226    4.3677  -17.6153 C   0  0  0  0  0  0  0  0  0  0  0  0
   -8.1393    4.5250  -18.5207 C   0  0  0  0  0  0  0  0  0  0  0  0
   -6.8088    4.7681  -18.0780 C   0  0  0  0  0  0  0  0  0  0  0  0
   -5.6845    4.9453  -18.7348 N   0  0  0  0  0  0  0  0  0  0  0  0
  1  2  2  0
  2  3  1  0
  3  4  2  0
  4  5  1  0
  5  6  2  0
  6  7  1  0
  7  8  1  0
  8  9  1  0
  9 10  2  0
 10 11  1  0
 11 12  1  0
 12 13  2  0
 13 14  1  0
 14 15  2  0
 15 16  1  0
 16 17  2  0
  7  3  1  0
 17  9  1  0
 16 11  1  0
M  END
>  <inchikey>  (53) 
SYFSIGHUVJFDOY-UHFFFAOYSA-N

>  <alias>  (53) 
O=Cc1nccn1Cc1cn2ccccc2n1

>  <tags>  (53) 
{'openbind_xx01zvns2b_c1_knitwork_pure', 'fragmenstein_placed'}

>  <HIPPO Pose ID>  (53) 
33443

>  <ref_pdb>  (53) 
71

>  <smiles>  (53) 
C17799-P44

>  <fragmenstein_runtime>  (53) 
1.994693

>  <fragmenstein_outcome>  (53) 
acceptable

>  <fragmenstein_mode>  (53) 
expansion

>  <fragmenstein_error>  (53) 


>  <HIPPO Compound ID>  (53) 
17079

>  <Energy>  (53) 
62.941086

>  <scratch_subdir>  (53) 
/opt/xchem-fragalysis-2/maxwin/BulkDock/SCRATCH/511030/C17799-P44

$$$$
O=C(NCc1cn2ccccc2n1)[C@@H](O)c1c[nH]cn1
     RDKit          3D

 20 22  0  0  0  0  0  0  0  0999 V2000
   -0.5572    7.1927  -17.4284 O   0  0  0  0  0  0  0  0  0  0  0  0
   -1.1111    6.4239  -16.7444 C   0  0  0  0  0  0  0  0  0  0  0  0
   -2.3647    5.5542  -17.0208 N   0  0  0  0  0  0  0  0  0  0  0  0
   -3.2453    5.5215  -18.1546 C   0  0  0  0  0  0  0  0  0  0  0  0
   -4.6557    5.2656  -17.7542 C   0  0  0  0  0  0  0  0  0  0  0  0
   -5.2281    5.1318  -16.5036 C   0  0  0  0  0  0  0  0  0  0  0  0
   -6.5518    4.8564  -16.7244 N   0  0  0  0  0  0  0  0  0  0  0  0
   -7.5612    4.6081  -15.8038 C   0  0  0  0  0  0  0  0  0  0  0  0
   -8.7997    4.3673  -16.2607 C   0  0  0  0  0  0  0  0  0  0  0  0
   -9.0553    4.3779  -17.6922 C   0  0  0  0  0  0  0  0  0  0  0  0
   -8.0576    4.5856  -18.5718 C   0  0  0  0  0  0  0  0  0  0  0  0
   -6.7416    4.8549  -18.1003 C   0  0  0  0  0  0  0  0  0  0  0  0
   -5.6163    5.1159  -18.7320 N   0  0  0  0  0  0  0  0  0  0  0  0
   -0.6469    6.0689  -15.2923 C   0  0  1  0  0  0  0  0  0  0  0  0
   -1.5289    5.1324  -14.6455 O   0  0  0  0  0  0  0  0  0  0  0  0
    0.7550    5.5269  -15.3044 C   0  0  0  0  0  0  0  0  0  0  0  0
    1.9283    6.0744  -15.7786 C   0  0  0  0  0  0  0  0  0  0  0  0
    2.8918    5.1344  -15.5409 N   0  0  0  0  0  0  0  0  0  0  0  0
    2.2931    4.0765  -14.9184 C   0  0  0  0  0  0  0  0  0  0  0  0
    1.0062    4.2799  -14.7522 N   0  0  0  0  0  0  0  0  0  0  0  0
  1  2  2  0
  2  3  1  0
  3  4  1  0
  4  5  1  0
  5  6  2  0
  6  7  1  0
  7  8  1  0
  8  9  2  0
  9 10  1  0
 10 11  2  0
 11 12  1  0
 12 13  2  0
  2 14  1  0
 14 15  1  6
 14 16  1  0
 16 17  2  0
 17 18  1  0
 18 19  1  0
 19 20  2  0
 13  5  1  0
 20 16  1  0
 12  7  1  0
M  END
>  <inchikey>  (54) 
YSAQPEZYSOZODS-UHFFFAOYSA-N

>  <alias>  (54) 
O=C(NCc1cn2ccccc2n1)[C@@H](O)c1c[nH]cn1

>  <tags>  (54) 
{'openbind_xx01zvns2b_c1_knitwork_pure', 'fragmenstein_placed'}

>  <HIPPO Pose ID>  (54) 
33448

>  <ref_pdb>  (54) 
71

>  <smiles>  (54) 
C17813-P44

>  <fragmenstein_runtime>  (54) 
3.260427

>  <fragmenstein_outcome>  (54) 
acceptable

>  <fragmenstein_mode>  (54) 
expansion

>  <fragmenstein_error>  (54) 


>  <HIPPO Compound ID>  (54) 
3992

>  <Energy>  (54) 
80.677518

>  <scratch_subdir>  (54) 
/opt/xchem-fragalysis-2/maxwin/BulkDock/SCRATCH/511030/C17813-P44

$$$$
C[C@H](Cc1cccnc1)Nc1cc(N)ncn1
     RDKit          3D

 17 18  0  0  0  0  0  0  0  0999 V2000
   -8.7208    1.8449   -7.8398 C   0  0  0  0  0  0  0  0  0  0  0  0
   -8.1814    3.1506   -8.4279 C   0  0  2  0  0  0  0  0  0  0  0  0
   -8.5646    4.3265   -7.4929 C   0  0  0  0  0  0  0  0  0  0  0  0
   -7.4096    4.8216   -6.6475 C   0  0  0  0  0  0  0  0  0  0  0  0
   -6.7747    6.0324   -6.9358 C   0  0  0  0  0  0  0  0  0  0  0  0
   -5.6776    6.4417   -6.1844 C   0  0  0  0  0  0  0  0  0  0  0  0
   -5.2298    5.6113   -5.1723 C   0  0  0  0  0  0  0  0  0  0  0  0
   -5.7959    4.4221   -4.8662 N   0  0  0  0  0  0  0  0  0  0  0  0
   -6.9010    4.0792   -5.5864 C   0  0  0  0  0  0  0  0  0  0  0  0
   -8.7082    3.2459   -9.7947 N   0  0  0  0  0  0  0  0  0  0  0  0
   -8.2490    4.2450  -10.6455 C   0  0  0  0  0  0  0  0  0  0  0  0
   -8.5067    4.1244  -11.9950 C   0  0  0  0  0  0  0  0  0  0  0  0
   -8.1325    5.1659  -12.8131 C   0  0  0  0  0  0  0  0  0  0  0  0
   -8.4537    5.1533  -14.1699 N   0  0  0  0  0  0  0  0  0  0  0  0
   -7.5395    6.2675  -12.3504 N   0  0  0  0  0  0  0  0  0  0  0  0
   -7.2904    6.2714  -11.0355 C   0  0  0  0  0  0  0  0  0  0  0  0
   -7.6041    5.3111  -10.1592 N   0  0  0  0  0  0  0  0  0  0  0  0
  2  1  1  1
  2  3  1  0
  3  4  1  0
  4  5  2  0
  5  6  1  0
  6  7  2  0
  7  8  1  0
  8  9  2  0
  2 10  1  0
 10 11  1  0
 11 12  2  0
 12 13  1  0
 13 14  1  0
 13 15  2  0
 15 16  1  0
 16 17  2  0
  9  4  1  0
 17 11  1  0
M  END
>  <inchikey>  (55) 
SMYIHRLAIAJIHD-UHFFFAOYSA-N

>  <alias>  (55) 
C[C@H](Cc1cccnc1)Nc1cc(N)ncn1

>  <tags>  (55) 
{'openbind_xx01zvns2b_c1_knitwork_pure', 'fragmenstein_placed'}

>  <HIPPO Pose ID>  (55) 
33508

>  <ref_pdb>  (55) 
71

>  <smiles>  (55) 
C49709-P7

>  <fragmenstein_runtime>  (55) 
3.729744

>  <fragmenstein_outcome>  (55) 
acceptable

>  <fragmenstein_mode>  (55) 
expansion

>  <fragmenstein_error>  (55) 


>  <HIPPO Compound ID>  (55) 
52306

>  <Energy>  (55) 
-65.520513

>  <scratch_subdir>  (55) 
/opt/xchem-fragalysis-2/maxwin/BulkDock/SCRATCH/511030/C49709-P7

$$$$
CC(C)(N)c1ccncc1
     RDKit          3D

 10 10  0  0  0  0  0  0  0  0999 V2000
   -7.8236    6.2835  -14.6454 C   0  0  0  0  0  0  0  0  0  0  0  0
   -7.5721    4.8881  -14.0983 C   0  0  0  0  0  0  0  0  0  0  0  0
   -8.4228    3.9544  -14.9712 C   0  0  0  0  0  0  0  0  0  0  0  0
   -6.1714    4.5403  -14.3542 N   0  0  0  0  0  0  0  0  0  0  0  0
   -7.8471    4.7991  -12.5977 C   0  0  0  0  0  0  0  0  0  0  0  0
   -8.0276    3.5606  -11.9682 C   0  0  0  0  0  0  0  0  0  0  0  0
   -8.2223    3.5083  -10.5930 C   0  0  0  0  0  0  0  0  0  0  0  0
   -8.2421    4.5969   -9.7940 N   0  0  0  0  0  0  0  0  0  0  0  0
   -8.0586    5.7821  -10.3995 C   0  0  0  0  0  0  0  0  0  0  0  0
   -7.8583    5.9316  -11.7650 C   0  0  0  0  0  0  0  0  0  0  0  0
  1  2  1  0
  2  3  1  0
  2  4  1  0
  2  5  1  0
  5  6  2  0
  6  7  1  0
  7  8  2  0
  8  9  1  0
  9 10  2  0
 10  5  1  0
M  END
>  <inchikey>  (56) 
KFRRPLBXAQBPTE-UHFFFAOYSA-N

>  <alias>  (56) 
CC(C)(N)c1ccncc1

>  <tags>  (56) 
{'openbind_xx01zvns2b_c1_knitwork_pure', 'fragmenstein_placed'}

>  <HIPPO Pose ID>  (56) 
33534

>  <ref_pdb>  (56) 
71

>  <smiles>  (56) 
C49750-P7

>  <fragmenstein_runtime>  (56) 
2.013894

>  <fragmenstein_outcome>  (56) 
acceptable

>  <fragmenstein_mode>  (56) 
expansion

>  <fragmenstein_error>  (56) 


>  <HIPPO Compound ID>  (56) 
47615

>  <Energy>  (56) 
16.418014

>  <scratch_subdir>  (56) 
/opt/xchem-fragalysis-2/maxwin/BulkDock/SCRATCH/511030/C49750-P7

$$$$
Nc1ccncc1C[C@@H](N)Cc1ccncc1
     RDKit          3D

 17 18  0  0  0  0  0  0  0  0999 V2000
   -8.1421    7.0755   -7.3004 N   0  0  0  0  0  0  0  0  0  0  0  0
   -7.4088    6.1182   -6.5871 C   0  0  0  0  0  0  0  0  0  0  0  0
   -6.4649    6.5756   -5.6605 C   0  0  0  0  0  0  0  0  0  0  0  0
   -5.8122    5.6678   -4.8428 C   0  0  0  0  0  0  0  0  0  0  0  0
   -6.0730    4.3483   -4.8350 N   0  0  0  0  0  0  0  0  0  0  0  0
   -7.0763    3.9455   -5.6588 C   0  0  0  0  0  0  0  0  0  0  0  0
   -7.7295    4.7515   -6.5948 C   0  0  0  0  0  0  0  0  0  0  0  0
   -8.7249    4.1121   -7.5486 C   0  0  0  0  0  0  0  0  0  0  0  0
   -8.1434    2.9868   -8.4540 C   0  0  1  0  0  0  0  0  0  0  0  0
   -8.5959    1.6929   -7.9107 N   0  0  0  0  0  0  0  0  0  0  0  0
   -8.5504    3.0371   -9.9443 C   0  0  0  0  0  0  0  0  0  0  0  0
   -8.1061    4.1999  -10.7990 C   0  0  0  0  0  0  0  0  0  0  0  0
   -8.4209    4.1749  -12.1618 C   0  0  0  0  0  0  0  0  0  0  0  0
   -8.1036    5.2636  -12.9567 C   0  0  0  0  0  0  0  0  0  0  0  0
   -7.4949    6.3717  -12.4914 N   0  0  0  0  0  0  0  0  0  0  0  0
   -7.1443    6.3556  -11.1896 C   0  0  0  0  0  0  0  0  0  0  0  0
   -7.4028    5.3019  -10.3267 C   0  0  0  0  0  0  0  0  0  0  0  0
  1  2  1  0
  2  3  2  0
  3  4  1  0
  4  5  2  0
  5  6  1  0
  6  7  2  0
  7  8  1  0
  8  9  1  0
  9 10  1  1
  9 11  1  0
 11 12  1  0
 12 13  2  0
 13 14  1  0
 14 15  2  0
 15 16  1  0
 16 17  2  0
  7  2  1  0
 17 12  1  0
M  END
>  <inchikey>  (57) 
QYCCGARPNBWPRJ-UHFFFAOYSA-N

>  <alias>  (57) 
Nc1ccncc1C[C@@H](N)Cc1ccncc1

>  <tags>  (57) 
{'openbind_xx01zvns2b_c1_knitwork_pure', 'fragmenstein_placed'}

>  <HIPPO Pose ID>  (57) 
33547

>  <ref_pdb>  (57) 
71

>  <smiles>  (57) 
C49780-P7

>  <fragmenstein_runtime>  (57) 
5.441726

>  <fragmenstein_outcome>  (57) 
acceptable

>  <fragmenstein_mode>  (57) 
expansion

>  <fragmenstein_error>  (57) 


>  <HIPPO Compound ID>  (57) 
4121

>  <Energy>  (57) 
57.659144

>  <scratch_subdir>  (57) 
/opt/xchem-fragalysis-2/maxwin/BulkDock/SCRATCH/511030/C49780-P7

$$$$
c1cc(-c2ccc3[nH]cnc3c2)ccn1
     RDKit          3D

 15 17  0  0  0  0  0  0  0  0999 V2000
   -8.0028    6.0549  -11.5459 C   0  0  0  0  0  0  0  0  0  0  0  0
   -7.8918    6.0440  -12.9318 C   0  0  0  0  0  0  0  0  0  0  0  0
   -7.8987    4.8189  -13.6135 C   0  0  0  0  0  0  0  0  0  0  0  0
   -7.7301    4.7513  -15.0847 C   0  0  0  0  0  0  0  0  0  0  0  0
   -8.7644    4.3335  -15.9468 C   0  0  0  0  0  0  0  0  0  0  0  0
   -8.6362    4.3112  -17.3502 C   0  0  0  0  0  0  0  0  0  0  0  0
   -7.4083    4.7213  -17.8657 C   0  0  0  0  0  0  0  0  0  0  0  0
   -6.9406    4.8821  -19.1453 N   0  0  0  0  0  0  0  0  0  0  0  0
   -5.6404    5.2989  -19.0637 C   0  0  0  0  0  0  0  0  0  0  0  0
   -5.2471    5.4452  -17.8187 N   0  0  0  0  0  0  0  0  0  0  0  0
   -6.3417    5.1010  -17.0604 C   0  0  0  0  0  0  0  0  0  0  0  0
   -6.5021    5.1176  -15.6639 C   0  0  0  0  0  0  0  0  0  0  0  0
   -8.0195    3.6613  -12.8382 C   0  0  0  0  0  0  0  0  0  0  0  0
   -8.1359    3.7680  -11.4565 C   0  0  0  0  0  0  0  0  0  0  0  0
   -8.1239    4.9447  -10.7935 N   0  0  0  0  0  0  0  0  0  0  0  0
  1  2  2  0
  2  3  1  0
  3  4  1  0
  4  5  2  0
  5  6  1  0
  6  7  2  0
  7  8  1  0
  8  9  1  0
  9 10  2  0
 10 11  1  0
 11 12  2  0
  3 13  2  0
 13 14  1  0
 14 15  2  0
 15  1  1  0
 12  4  1  0
 11  7  1  0
M  END
>  <inchikey>  (58) 
PPNSSSBLNOZECG-UHFFFAOYSA-N

>  <alias>  (58) 
c1cc(-c2ccc3[nH]cnc3c2)ccn1

>  <tags>  (58) 
{'openbind_xx01zvns2b_c1_knitwork_pure', 'fragmenstein_placed'}

>  <HIPPO Pose ID>  (58) 
33618

>  <ref_pdb>  (58) 
71

>  <smiles>  (58) 
C10773-P7

>  <fragmenstein_runtime>  (58) 
1.693827

>  <fragmenstein_outcome>  (58) 
acceptable

>  <fragmenstein_mode>  (58) 
expansion

>  <fragmenstein_error>  (58) 


>  <HIPPO Compound ID>  (58) 
10765

>  <Energy>  (58) 
21.706047

>  <scratch_subdir>  (58) 
/opt/xchem-fragalysis-2/maxwin/BulkDock/SCRATCH/511030/C10773-P7

$$$$
OCc1cccc2[nH]c(-c3ccncc3)nc12
     RDKit          3D

 17 19  0  0  0  0  0  0  0  0999 V2000
   -7.8027    5.4859  -13.9026 O   0  0  0  0  0  0  0  0  0  0  0  0
   -6.9901    4.6547  -14.7313 C   0  0  0  0  0  0  0  0  0  0  0  0
   -7.5966    4.5572  -16.0953 C   0  0  0  0  0  0  0  0  0  0  0  0
   -8.9587    4.2147  -16.2315 C   0  0  0  0  0  0  0  0  0  0  0  0
   -9.5808    4.1045  -17.4756 C   0  0  0  0  0  0  0  0  0  0  0  0
   -8.8654    4.3196  -18.6480 C   0  0  0  0  0  0  0  0  0  0  0  0
   -7.5210    4.6571  -18.5025 C   0  0  0  0  0  0  0  0  0  0  0  0
   -6.5656    4.9729  -19.4280 N   0  0  0  0  0  0  0  0  0  0  0  0
   -5.3877    5.2334  -18.7702 C   0  0  0  0  0  0  0  0  0  0  0  0
   -4.1646    5.5760  -19.4799 C   0  0  0  0  0  0  0  0  0  0  0  0
   -2.9793    4.8950  -19.2035 C   0  0  0  0  0  0  0  0  0  0  0  0
   -1.8861    5.1341  -20.0143 C   0  0  0  0  0  0  0  0  0  0  0  0
   -1.9047    6.0133  -21.0457 N   0  0  0  0  0  0  0  0  0  0  0  0
   -3.0253    6.7460  -21.2163 C   0  0  0  0  0  0  0  0  0  0  0  0
   -4.1756    6.5510  -20.4798 C   0  0  0  0  0  0  0  0  0  0  0  0
   -5.5404    5.0905  -17.4675 N   0  0  0  0  0  0  0  0  0  0  0  0
   -6.8702    4.7669  -17.2815 C   0  0  0  0  0  0  0  0  0  0  0  0
  1  2  1  0
  2  3  1  0
  3  4  2  0
  4  5  1  0
  5  6  2  0
  6  7  1  0
  7  8  1  0
  8  9  1  0
  9 10  1  0
 10 11  2  0
 11 12  1  0
 12 13  2  0
 13 14  1  0
 14 15  2  0
  9 16  2  0
 16 17  1  0
 17  3  1  0
 17  7  2  0
 15 10  1  0
M  END
>  <inchikey>  (59) 
ZSNJLQABIPWEJT-UHFFFAOYSA-N

>  <alias>  (59) 
OCc1cccc2[nH]c(-c3ccncc3)nc12

>  <tags>  (59) 
{'openbind_xx01zvns2b_c1_knitwork_pure', 'fragmenstein_placed'}

>  <HIPPO Pose ID>  (59) 
33619

>  <ref_pdb>  (59) 
71

>  <smiles>  (59) 
C10776-P7

>  <fragmenstein_runtime>  (59) 
3.04089

>  <fragmenstein_outcome>  (59) 
acceptable

>  <fragmenstein_mode>  (59) 
expansion

>  <fragmenstein_error>  (59) 


>  <HIPPO Compound ID>  (59) 
52864

>  <Energy>  (59) 
19.488526

>  <scratch_subdir>  (59) 
/opt/xchem-fragalysis-2/maxwin/BulkDock/SCRATCH/511030/C10776-P7

$$$$
c1ccc2nc(-c3ccncc3)ccc2c1
     RDKit          3D

 16 18  0  0  0  0  0  0  0  0999 V2000
   -8.9469    4.3251  -16.2364 C   0  0  0  0  0  0  0  0  0  0  0  0
   -9.2519    4.2171  -17.5861 C   0  0  0  0  0  0  0  0  0  0  0  0
   -8.2662    4.4827  -18.5364 C   0  0  0  0  0  0  0  0  0  0  0  0
   -6.9854    4.8784  -18.1719 C   0  0  0  0  0  0  0  0  0  0  0  0
   -6.0501    5.1150  -19.1102 N   0  0  0  0  0  0  0  0  0  0  0  0
   -4.8030    5.4509  -18.7108 C   0  0  0  0  0  0  0  0  0  0  0  0
   -3.7951    5.5865  -19.7604 C   0  0  0  0  0  0  0  0  0  0  0  0
   -2.5470    4.9601  -19.6381 C   0  0  0  0  0  0  0  0  0  0  0  0
   -1.6217    5.1027  -20.6519 C   0  0  0  0  0  0  0  0  0  0  0  0
   -1.8724    5.7873  -21.7884 N   0  0  0  0  0  0  0  0  0  0  0  0
   -3.0558    6.4381  -21.8678 C   0  0  0  0  0  0  0  0  0  0  0  0
   -4.0371    6.3573  -20.8981 C   0  0  0  0  0  0  0  0  0  0  0  0
   -4.4633    5.6235  -17.3751 C   0  0  0  0  0  0  0  0  0  0  0  0
   -5.4263    5.3992  -16.4076 C   0  0  0  0  0  0  0  0  0  0  0  0
   -6.7049    5.0065  -16.7954 C   0  0  0  0  0  0  0  0  0  0  0  0
   -7.6807    4.7256  -15.8349 C   0  0  0  0  0  0  0  0  0  0  0  0
  1  2  2  0
  2  3  1  0
  3  4  2  0
  4  5  1  0
  5  6  2  0
  6  7  1  0
  7  8  2  0
  8  9  1  0
  9 10  2  0
 10 11  1  0
 11 12  2  0
  6 13  1  0
 13 14  2  0
 14 15  1  0
 15 16  2  0
 16  1  1  0
 15  4  1  0
 12  7  1  0
M  END
>  <inchikey>  (60) 
OCMHOLLDBOUSFA-UHFFFAOYSA-N

>  <alias>  (60) 
c1ccc2nc(-c3ccncc3)ccc2c1

>  <tags>  (60) 
{'openbind_xx01zvns2b_c1_knitwork_pure', 'fragmenstein_placed'}

>  <HIPPO Pose ID>  (60) 
33662

>  <ref_pdb>  (60) 
71

>  <smiles>  (60) 
C10429-P19

>  <fragmenstein_runtime>  (60) 
0.947277

>  <fragmenstein_outcome>  (60) 
acceptable

>  <fragmenstein_mode>  (60) 
expansion

>  <fragmenstein_error>  (60) 


>  <HIPPO Compound ID>  (60) 
48235

>  <Energy>  (60) 
47.836561

>  <scratch_subdir>  (60) 
/opt/xchem-fragalysis-2/maxwin/BulkDock/SCRATCH/511030/C10429-P19

$$$$
COc1cc2ccccc2nc1-c1ccncc1
     RDKit          3D

 18 20  0  0  0  0  0  0  0  0999 V2000
   -2.7688    5.8886  -15.6458 C   0  0  0  0  0  0  0  0  0  0  0  0
   -3.1804    6.0273  -16.9999 O   0  0  0  0  0  0  0  0  0  0  0  0
   -4.4505    5.6203  -17.3176 C   0  0  0  0  0  0  0  0  0  0  0  0
   -5.4472    5.3911  -16.3806 C   0  0  0  0  0  0  0  0  0  0  0  0
   -6.7179    4.9922  -16.7971 C   0  0  0  0  0  0  0  0  0  0  0  0
   -7.7129    4.7105  -15.8559 C   0  0  0  0  0  0  0  0  0  0  0  0
   -8.9703    4.3069  -16.2804 C   0  0  0  0  0  0  0  0  0  0  0  0
   -9.2491    4.1977  -17.6349 C   0  0  0  0  0  0  0  0  0  0  0  0
   -8.2453    4.4636  -18.5653 C   0  0  0  0  0  0  0  0  0  0  0  0
   -6.9727    4.8622  -18.1760 C   0  0  0  0  0  0  0  0  0  0  0  0
   -6.0213    5.1020  -19.0933 N   0  0  0  0  0  0  0  0  0  0  0  0
   -4.7773    5.4482  -18.6701 C   0  0  0  0  0  0  0  0  0  0  0  0
   -3.7794    5.5788  -19.7387 C   0  0  0  0  0  0  0  0  0  0  0  0
   -4.0325    6.3578  -20.8695 C   0  0  0  0  0  0  0  0  0  0  0  0
   -3.0668    6.4351  -21.8557 C   0  0  0  0  0  0  0  0  0  0  0  0
   -1.8874    5.7742  -21.8015 N   0  0  0  0  0  0  0  0  0  0  0  0
   -1.6248    5.0822  -20.6722 C   0  0  0  0  0  0  0  0  0  0  0  0
   -2.5380    4.9343  -19.6489 C   0  0  0  0  0  0  0  0  0  0  0  0
  1  2  1  0
  2  3  1  0
  3  4  2  0
  4  5  1  0
  5  6  2  0
  6  7  1  0
  7  8  2  0
  8  9  1  0
  9 10  2  0
 10 11  1  0
 11 12  2  0
 12 13  1  0
 13 14  2  0
 14 15  1  0
 15 16  2  0
 16 17  1  0
 17 18  2  0
 12  3  1  0
 18 13  1  0
 10  5  1  0
M  END
>  <inchikey>  (61) 
AKWVQZHWGPBFEJ-UHFFFAOYSA-N

>  <alias>  (61) 
COc1cc2ccccc2nc1-c1ccncc1

>  <tags>  (61) 
{'openbind_xx01zvns2b_c1_knitwork_pure', 'fragmenstein_placed'}

>  <HIPPO Pose ID>  (61) 
33684

>  <ref_pdb>  (61) 
71

>  <smiles>  (61) 
C10473-P19

>  <fragmenstein_runtime>  (61) 
1.218797

>  <fragmenstein_outcome>  (61) 
acceptable

>  <fragmenstein_mode>  (61) 
expansion

>  <fragmenstein_error>  (61) 


>  <HIPPO Compound ID>  (61) 
9452

>  <Energy>  (61) 
73.673

>  <scratch_subdir>  (61) 
/opt/xchem-fragalysis-2/maxwin/BulkDock/SCRATCH/511030/C10473-P19

$$$$
O=c1[nH]c2ccccc2n1[C@@H]1CCCNC1
     RDKit          3D

 16 18  0  0  0  0  0  0  0  0999 V2000
   -5.9528    4.2030  -20.8611 O   0  0  0  0  0  0  0  0  0  0  0  0
   -6.4560    4.3393  -19.7546 C   0  0  0  0  0  0  0  0  0  0  0  0
   -7.6392    3.6984  -19.3435 N   0  0  0  0  0  0  0  0  0  0  0  0
   -7.8896    4.0240  -18.0219 C   0  0  0  0  0  0  0  0  0  0  0  0
   -8.9308    3.6345  -17.2241 C   0  0  0  0  0  0  0  0  0  0  0  0
   -8.8851    4.0417  -15.8892 C   0  0  0  0  0  0  0  0  0  0  0  0
   -7.8254    4.8239  -15.3956 C   0  0  0  0  0  0  0  0  0  0  0  0
   -6.8053    5.2506  -16.2463 C   0  0  0  0  0  0  0  0  0  0  0  0
   -6.8718    4.8494  -17.5654 C   0  0  0  0  0  0  0  0  0  0  0  0
   -6.0357    5.1357  -18.6574 N   0  0  0  0  0  0  0  0  0  0  0  0
   -4.9620    6.1172  -18.5914 C   0  0  2  0  0  0  0  0  0  0  0  0
   -4.7084    6.8591  -19.9164 C   0  0  0  0  0  0  0  0  0  0  0  0
   -3.3238    6.5672  -20.4882 C   0  0  0  0  0  0  0  0  0  0  0  0
   -2.8949    5.1142  -20.2967 C   0  0  0  0  0  0  0  0  0  0  0  0
   -2.9714    4.6250  -18.9234 N   0  0  0  0  0  0  0  0  0  0  0  0
   -3.6621    5.5234  -18.0105 C   0  0  0  0  0  0  0  0  0  0  0  0
  1  2  2  0
  2  3  1  0
  3  4  1  0
  4  5  2  0
  5  6  1  0
  6  7  2  0
  7  8  1  0
  8  9  2  0
  9 10  1  0
 11 10  1  6
 11 12  1  0
 12 13  1  0
 13 14  1  0
 14 15  1  0
 15 16  1  0
 10  2  1  0
 16 11  1  0
  9  4  1  0
M  END
>  <inchikey>  (62) 
IEDYRQDMLQQEPF-UHFFFAOYSA-N

>  <alias>  (62) 
O=c1[nH]c2ccccc2n1[C@@H]1CCCNC1

>  <tags>  (62) 
{'openbind_xx01zvns2b_c1_knitwork_pure', 'fragmenstein_placed'}

>  <HIPPO Pose ID>  (62) 
33712

>  <ref_pdb>  (62) 
71

>  <smiles>  (62) 
C7807-P268

>  <fragmenstein_runtime>  (62) 
1.13601

>  <fragmenstein_outcome>  (62) 
acceptable

>  <fragmenstein_mode>  (62) 
expansion

>  <fragmenstein_error>  (62) 


>  <HIPPO Compound ID>  (62) 
51334

>  <Energy>  (62) 
12.929624

>  <scratch_subdir>  (62) 
/opt/xchem-fragalysis-2/maxwin/BulkDock/SCRATCH/511030/C7807-P268

$$$$
O=c1[nH]c2c(Cl)cccc2n1[C@@H]1CCCNC1
     RDKit          3D

 17 19  0  0  0  0  0  0  0  0999 V2000
   -5.8198    4.4475  -20.7076 O   0  0  0  0  0  0  0  0  0  0  0  0
   -6.2949    4.5476  -19.5867 C   0  0  0  0  0  0  0  0  0  0  0  0
   -7.5317    4.0235  -19.1920 N   0  0  0  0  0  0  0  0  0  0  0  0
   -7.7260    4.2914  -17.8436 C   0  0  0  0  0  0  0  0  0  0  0  0
   -8.8278    4.1018  -17.0542 C   0  0  0  0  0  0  0  0  0  0  0  0
  -10.3405    3.8245  -17.7781 Cl  0  0  0  0  0  0  0  0  0  0  0  0
   -8.7115    4.3515  -15.6872 C   0  0  0  0  0  0  0  0  0  0  0  0
   -7.5255    4.8891  -15.1606 C   0  0  0  0  0  0  0  0  0  0  0  0
   -6.4679    5.2290  -16.0081 C   0  0  0  0  0  0  0  0  0  0  0  0
   -6.5989    4.9220  -17.3495 C   0  0  0  0  0  0  0  0  0  0  0  0
   -5.7600    5.1975  -18.4437 N   0  0  0  0  0  0  0  0  0  0  0  0
   -4.7504    6.2516  -18.3949 C   0  0  2  0  0  0  0  0  0  0  0  0
   -4.5425    7.0070  -19.7209 C   0  0  0  0  0  0  0  0  0  0  0  0
   -3.2064    6.6686  -20.3811 C   0  0  0  0  0  0  0  0  0  0  0  0
   -2.7620    5.2274  -20.1429 C   0  0  0  0  0  0  0  0  0  0  0  0
   -2.7430    4.8098  -18.7400 N   0  0  0  0  0  0  0  0  0  0  0  0
   -3.4161    5.7343  -17.8401 C   0  0  0  0  0  0  0  0  0  0  0  0
  1  2  2  0
  2  3  1  0
  3  4  1  0
  4  5  2  0
  5  6  1  0
  5  7  1  0
  7  8  2  0
  8  9  1  0
  9 10  2  0
 10 11  1  0
 12 11  1  6
 12 13  1  0
 13 14  1  0
 14 15  1  0
 15 16  1  0
 16 17  1  0
 11  2  1  0
 17 12  1  0
 10  4  1  0
M  END
>  <inchikey>  (63) 
ATCPLAFSRIKIEQ-UHFFFAOYSA-N

>  <alias>  (63) 
O=c1[nH]c2c(Cl)cccc2n1[C@@H]1CCCNC1

>  <tags>  (63) 
{'openbind_xx01zvns2b_c1_knitwork_pure', 'fragmenstein_placed'}

>  <HIPPO Pose ID>  (63) 
33726

>  <ref_pdb>  (63) 
71

>  <smiles>  (63) 
C7823-P268

>  <fragmenstein_runtime>  (63) 
1.222579

>  <fragmenstein_outcome>  (63) 
acceptable

>  <fragmenstein_mode>  (63) 
expansion

>  <fragmenstein_error>  (63) 


>  <HIPPO Compound ID>  (63) 
3857

>  <Energy>  (63) 
25.256701

>  <scratch_subdir>  (63) 
/opt/xchem-fragalysis-2/maxwin/BulkDock/SCRATCH/511030/C7823-P268

$$$$
O=c1[nH]c2c(Cl)cccc2n1C[C@H]1CCCNC1
     RDKit          3D

 18 20  0  0  0  0  0  0  0  0999 V2000
   -5.6572    4.7003  -20.9887 O   0  0  0  0  0  0  0  0  0  0  0  0
   -6.1291    4.7146  -19.8618 C   0  0  0  0  0  0  0  0  0  0  0  0
   -7.1262    3.8658  -19.3992 N   0  0  0  0  0  0  0  0  0  0  0  0
   -7.4022    4.1814  -18.0773 C   0  0  0  0  0  0  0  0  0  0  0  0
   -8.3629    3.6563  -17.2603 C   0  0  0  0  0  0  0  0  0  0  0  0
   -9.3715    2.4690  -17.9105 Cl  0  0  0  0  0  0  0  0  0  0  0  0
   -8.4296    4.0896  -15.9404 C   0  0  0  0  0  0  0  0  0  0  0  0
   -7.5112    5.0474  -15.4774 C   0  0  0  0  0  0  0  0  0  0  0  0
   -6.5633    5.6105  -16.3467 C   0  0  0  0  0  0  0  0  0  0  0  0
   -6.5485    5.1785  -17.6576 C   0  0  0  0  0  0  0  0  0  0  0  0
   -5.7881    5.5759  -18.7745 N   0  0  0  0  0  0  0  0  0  0  0  0
   -5.4153    6.9490  -19.0145 C   0  0  0  0  0  0  0  0  0  0  0  0
   -3.9149    7.2701  -19.0851 C   0  0  1  0  0  0  0  0  0  0  0  0
   -3.1894    7.0833  -17.7392 C   0  0  0  0  0  0  0  0  0  0  0  0
   -2.1893    5.9297  -17.7458 C   0  0  0  0  0  0  0  0  0  0  0  0
   -2.6789    4.7799  -18.6130 C   0  0  0  0  0  0  0  0  0  0  0  0
   -2.8612    5.1609  -20.0104 N   0  0  0  0  0  0  0  0  0  0  0  0
   -3.1689    6.5709  -20.2232 C   0  0  0  0  0  0  0  0  0  0  0  0
  1  2  2  0
  2  3  1  0
  3  4  1  0
  4  5  2  0
  5  6  1  0
  5  7  1  0
  7  8  2  0
  8  9  1  0
  9 10  2  0
 10 11  1  0
 11 12  1  0
 13 12  1  1
 13 14  1  0
 14 15  1  0
 15 16  1  0
 16 17  1  0
 17 18  1  0
 11  2  1  0
 18 13  1  0
 10  4  1  0
M  END
>  <inchikey>  (64) 
KGSHNEJYWLPNKO-UHFFFAOYSA-N

>  <alias>  (64) 
O=c1[nH]c2c(Cl)cccc2n1C[C@H]1CCCNC1

>  <tags>  (64) 
{'openbind_xx01zvns2b_c1_knitwork_pure', 'fragmenstein_placed'}

>  <HIPPO Pose ID>  (64) 
33727

>  <ref_pdb>  (64) 
71

>  <smiles>  (64) 
C7824-P268

>  <fragmenstein_runtime>  (64) 
1.491302

>  <fragmenstein_outcome>  (64) 
acceptable

>  <fragmenstein_mode>  (64) 
expansion

>  <fragmenstein_error>  (64) 


>  <HIPPO Compound ID>  (64) 
14680

>  <Energy>  (64) 
8.805257

>  <scratch_subdir>  (64) 
/opt/xchem-fragalysis-2/maxwin/BulkDock/SCRATCH/511030/C7824-P268

$$$$
O=c1[nH]c2ccc(Br)cc2n1[C@@H]1CCCNC1
     RDKit          3D

 17 19  0  0  0  0  0  0  0  0999 V2000
   -5.8944    4.2725  -20.8654 O   0  0  0  0  0  0  0  0  0  0  0  0
   -6.4314    4.3809  -19.7726 C   0  0  0  0  0  0  0  0  0  0  0  0
   -7.5955    3.6913  -19.3921 N   0  0  0  0  0  0  0  0  0  0  0  0
   -7.8842    3.9911  -18.0734 C   0  0  0  0  0  0  0  0  0  0  0  0
   -8.9335    3.5623  -17.3078 C   0  0  0  0  0  0  0  0  0  0  0  0
   -8.9234    3.9443  -15.9656 C   0  0  0  0  0  0  0  0  0  0  0  0
   -7.8844    4.7304  -15.4405 C   0  0  0  0  0  0  0  0  0  0  0  0
   -7.8692    5.1269  -13.5933 Br  0  0  0  0  0  0  0  0  0  0  0  0
   -6.8674    5.2181  -16.2577 C   0  0  0  0  0  0  0  0  0  0  0  0
   -6.9009    4.8406  -17.5839 C   0  0  0  0  0  0  0  0  0  0  0  0
   -6.0552    5.1733  -18.6569 N   0  0  0  0  0  0  0  0  0  0  0  0
   -5.0995    6.2765  -18.5843 C   0  0  2  0  0  0  0  0  0  0  0  0
   -4.7926    6.9545  -19.9321 C   0  0  0  0  0  0  0  0  0  0  0  0
   -3.3780    6.6540  -20.4293 C   0  0  0  0  0  0  0  0  0  0  0  0
   -2.8991    5.2509  -20.0638 C   0  0  0  0  0  0  0  0  0  0  0  0
   -3.0024    4.9167  -18.6417 N   0  0  0  0  0  0  0  0  0  0  0  0
   -3.7993    5.8642  -17.8746 C   0  0  0  0  0  0  0  0  0  0  0  0
  1  2  2  0
  2  3  1  0
  3  4  1  0
  4  5  2  0
  5  6  1  0
  6  7  2  0
  7  8  1  0
  7  9  1  0
  9 10  2  0
 10 11  1  0
 12 11  1  6
 12 13  1  0
 13 14  1  0
 14 15  1  0
 15 16  1  0
 16 17  1  0
 11  2  1  0
 17 12  1  0
 10  4  1  0
M  END
>  <inchikey>  (65) 
POIOCCLUCQDBOL-UHFFFAOYSA-N

>  <alias>  (65) 
O=c1[nH]c2ccc(Br)cc2n1[C@@H]1CCCNC1

>  <tags>  (65) 
{'openbind_xx01zvns2b_c1_knitwork_pure', 'fragmenstein_placed'}

>  <HIPPO Pose ID>  (65) 
33729

>  <ref_pdb>  (65) 
71

>  <smiles>  (65) 
C7826-P268

>  <fragmenstein_runtime>  (65) 
1.728924

>  <fragmenstein_outcome>  (65) 
acceptable

>  <fragmenstein_mode>  (65) 
expansion

>  <fragmenstein_error>  (65) 


>  <HIPPO Compound ID>  (65) 
16262

>  <Energy>  (65) 
7.906824

>  <scratch_subdir>  (65) 
/opt/xchem-fragalysis-2/maxwin/BulkDock/SCRATCH/511030/C7826-P268

$$$$
O=c1[nH]c2ccc(Br)cc2n1C[C@@H]1CCCNC1
     RDKit          3D

 18 20  0  0  0  0  0  0  0  0999 V2000
   -5.9779    4.2607  -21.0070 O   0  0  0  0  0  0  0  0  0  0  0  0
   -6.4563    4.3429  -19.8846 C   0  0  0  0  0  0  0  0  0  0  0  0
   -7.5518    3.6010  -19.4248 N   0  0  0  0  0  0  0  0  0  0  0  0
   -7.8094    3.9427  -18.1120 C   0  0  0  0  0  0  0  0  0  0  0  0
   -8.8218    3.5047  -17.2998 C   0  0  0  0  0  0  0  0  0  0  0  0
   -8.7981    3.9449  -15.9767 C   0  0  0  0  0  0  0  0  0  0  0  0
   -7.7812    4.8002  -15.5194 C   0  0  0  0  0  0  0  0  0  0  0  0
   -7.7325    5.2615  -13.6872 Br  0  0  0  0  0  0  0  0  0  0  0  0
   -6.8117    5.3035  -16.3890 C   0  0  0  0  0  0  0  0  0  0  0  0
   -6.8579    4.8637  -17.6956 C   0  0  0  0  0  0  0  0  0  0  0  0
   -6.0505    5.1995  -18.8071 N   0  0  0  0  0  0  0  0  0  0  0  0
   -5.7630    6.5981  -19.0907 C   0  0  0  0  0  0  0  0  0  0  0  0
   -4.2988    7.0561  -19.1175 C   0  0  2  0  0  0  0  0  0  0  0  0
   -3.4662    6.4069  -20.2285 C   0  0  0  0  0  0  0  0  0  0  0  0
   -2.3835    5.4812  -19.6895 C   0  0  0  0  0  0  0  0  0  0  0  0
   -2.8353    4.7525  -18.4359 C   0  0  0  0  0  0  0  0  0  0  0  0
   -3.2245    5.6242  -17.3277 N   0  0  0  0  0  0  0  0  0  0  0  0
   -3.6010    6.9660  -17.7539 C   0  0  0  0  0  0  0  0  0  0  0  0
  1  2  2  0
  2  3  1  0
  3  4  1  0
  4  5  2  0
  5  6  1  0
  6  7  2  0
  7  8  1  0
  7  9  1  0
  9 10  2  0
 10 11  1  0
 11 12  1  0
 13 12  1  1
 13 14  1  0
 14 15  1  0
 15 16  1  0
 16 17  1  0
 17 18  1  0
 11  2  1  0
 18 13  1  0
 10  4  1  0
M  END
>  <inchikey>  (66) 
ILZXOQNEKATFNO-UHFFFAOYSA-N

>  <alias>  (66) 
O=c1[nH]c2ccc(Br)cc2n1C[C@@H]1CCCNC1

>  <tags>  (66) 
{'openbind_xx01zvns2b_c1_knitwork_pure', 'fragmenstein_placed'}

>  <HIPPO Pose ID>  (66) 
33733

>  <ref_pdb>  (66) 
71

>  <smiles>  (66) 
C7830-P268

>  <fragmenstein_runtime>  (66) 
1.388922

>  <fragmenstein_outcome>  (66) 
acceptable

>  <fragmenstein_mode>  (66) 
expansion

>  <fragmenstein_error>  (66) 


>  <HIPPO Compound ID>  (66) 
48390

>  <Energy>  (66) 
-0.422301

>  <scratch_subdir>  (66) 
/opt/xchem-fragalysis-2/maxwin/BulkDock/SCRATCH/511030/C7830-P268

$$$$
Cn1c(=O)[nH]c2ccc(C(=O)NC[C@@H]3CCCNC3)cc21
     RDKit          3D

 21 23  0  0  0  0  0  0  0  0999 V2000
   -4.4967    5.2451  -18.5762 C   0  0  0  0  0  0  0  0  0  0  0  0
   -5.8286    4.7257  -18.5377 N   0  0  0  0  0  0  0  0  0  0  0  0
   -6.5309    4.1525  -19.6206 C   0  0  0  0  0  0  0  0  0  0  0  0
   -6.1254    3.9714  -20.7601 O   0  0  0  0  0  0  0  0  0  0  0  0
   -7.7900    3.7777  -19.1161 N   0  0  0  0  0  0  0  0  0  0  0  0
   -7.8428    4.0843  -17.7602 C   0  0  0  0  0  0  0  0  0  0  0  0
   -8.8619    3.8963  -16.8576 C   0  0  0  0  0  0  0  0  0  0  0  0
   -8.6243    4.2840  -15.5283 C   0  0  0  0  0  0  0  0  0  0  0  0
   -7.3921    4.8649  -15.1467 C   0  0  0  0  0  0  0  0  0  0  0  0
   -7.2137    5.5096  -13.8082 C   0  0  0  0  0  0  0  0  0  0  0  0
   -6.7005    6.5579  -13.8190 O   0  0  0  0  0  0  0  0  0  0  0  0
   -7.8362    4.7129  -12.6426 N   0  0  0  0  0  0  0  0  0  0  0  0
   -8.0434    5.0790  -11.2637 C   0  0  0  0  0  0  0  0  0  0  0  0
   -7.8471    4.0381  -10.1500 C   0  0  2  0  0  0  0  0  0  0  0  0
   -8.7576    2.8185  -10.2644 C   0  0  0  0  0  0  0  0  0  0  0  0
   -8.7088    1.9612   -9.0004 C   0  0  0  0  0  0  0  0  0  0  0  0
   -8.9388    2.7637   -7.7263 C   0  0  0  0  0  0  0  0  0  0  0  0
   -8.0697    3.9344   -7.6257 N   0  0  0  0  0  0  0  0  0  0  0  0
   -8.1195    4.7712   -8.8140 C   0  0  0  0  0  0  0  0  0  0  0  0
   -6.3766    5.0596  -16.0983 C   0  0  0  0  0  0  0  0  0  0  0  0
   -6.6291    4.6574  -17.3921 C   0  0  0  0  0  0  0  0  0  0  0  0
  1  2  1  0
  2  3  1  0
  3  4  2  0
  3  5  1  0
  5  6  1  0
  6  7  2  0
  7  8  1  0
  8  9  2  0
  9 10  1  0
 10 11  2  0
 10 12  1  0
 12 13  1  0
 14 13  1  6
 14 15  1  0
 15 16  1  0
 16 17  1  0
 17 18  1  0
 18 19  1  0
  9 20  1  0
 20 21  2  0
 21  2  1  0
 21  6  1  0
 19 14  1  0
M  END
>  <inchikey>  (67) 
OCZVEWPQCHBXAK-UHFFFAOYSA-N

>  <alias>  (67) 
Cn1c(=O)[nH]c2ccc(C(=O)NC[C@@H]3CCCNC3)cc21

>  <tags>  (67) 
{'openbind_xx01zvns2b_c1_knitwork_pure', 'fragmenstein_placed'}

>  <HIPPO Pose ID>  (67) 
33744

>  <ref_pdb>  (67) 
71

>  <smiles>  (67) 
C7846-P268

>  <fragmenstein_runtime>  (67) 
6.238517

>  <fragmenstein_outcome>  (67) 
acceptable

>  <fragmenstein_mode>  (67) 
expansion

>  <fragmenstein_error>  (67) 


>  <HIPPO Compound ID>  (67) 
7846

>  <Energy>  (67) 
-7.057451

>  <scratch_subdir>  (67) 
/opt/xchem-fragalysis-2/maxwin/BulkDock/SCRATCH/511030/C7846-P268

$$$$
COc1ccc2nc(CNc3nc4ccccc4[nH]3)sc2c1
     RDKit          3D

 22 25  0  0  0  0  0  0  0  0999 V2000
   -3.6857    5.4750  -17.9572 C   0  0  0  0  0  0  0  0  0  0  0  0
   -3.0394    6.5109  -18.6980 O   0  0  0  0  0  0  0  0  0  0  0  0
   -3.7315    6.9976  -19.7788 C   0  0  0  0  0  0  0  0  0  0  0  0
   -4.8046    6.3549  -20.3678 C   0  0  0  0  0  0  0  0  0  0  0  0
   -5.4066    6.8943  -21.5070 C   0  0  0  0  0  0  0  0  0  0  0  0
   -4.9985    8.1051  -22.0537 C   0  0  0  0  0  0  0  0  0  0  0  0
   -5.5731    8.7224  -23.1357 N   0  0  0  0  0  0  0  0  0  0  0  0
   -4.9331    9.8363  -23.3945 C   0  0  0  0  0  0  0  0  0  0  0  0
   -5.2802   10.7352  -24.5503 C   0  0  0  0  0  0  0  0  0  0  0  0
   -5.3175   10.0891  -25.8634 N   0  0  0  0  0  0  0  0  0  0  0  0
   -6.4300    9.4811  -26.3290 C   0  0  0  0  0  0  0  0  0  0  0  0
   -6.4639    8.3477  -26.9831 N   0  0  0  0  0  0  0  0  0  0  0  0
   -7.7763    8.1649  -27.3436 C   0  0  0  0  0  0  0  0  0  0  0  0
   -8.3728    7.1184  -28.0583 C   0  0  0  0  0  0  0  0  0  0  0  0
   -9.7429    7.1919  -28.3327 C   0  0  0  0  0  0  0  0  0  0  0  0
  -10.5101    8.2688  -27.8801 C   0  0  0  0  0  0  0  0  0  0  0  0
   -9.9357    9.3166  -27.1516 C   0  0  0  0  0  0  0  0  0  0  0  0
   -8.5619    9.2292  -26.9130 C   0  0  0  0  0  0  0  0  0  0  0  0
   -7.6731   10.0524  -26.2690 N   0  0  0  0  0  0  0  0  0  0  0  0
   -3.6536   10.2228  -22.3094 S   0  0  0  0  0  0  0  0  0  0  0  0
   -3.9325    8.7608  -21.4443 C   0  0  0  0  0  0  0  0  0  0  0  0
   -3.2759    8.2110  -20.3205 C   0  0  0  0  0  0  0  0  0  0  0  0
  1  2  1  0
  2  3  1  0
  3  4  2  0
  4  5  1  0
  5  6  2  0
  6  7  1  0
  7  8  2  0
  8  9  1  0
  9 10  1  0
 10 11  1  0
 11 12  2  0
 12 13  1  0
 13 14  2  0
 14 15  1  0
 15 16  2  0
 16 17  1  0
 17 18  2  0
 18 19  1  0
  8 20  1  0
 20 21  1  0
 21 22  2  0
 22  3  1  0
 21  6  1  0
 19 11  1  0
 18 13  1  0
M  END
>  <inchikey>  (68) 
FZGDBMZFKRUJIR-UHFFFAOYSA-N

>  <alias>  (68) 
COc1ccc2nc(CNc3nc4ccccc4[nH]3)sc2c1

>  <tags>  (68) 
{'openbind_xx01zvns2b_c1_knitwork_pure', 'fragmenstein_placed'}

>  <HIPPO Pose ID>  (68) 
33845

>  <ref_pdb>  (68) 
71

>  <smiles>  (68) 
C13471-P6

>  <fragmenstein_runtime>  (68) 
16.353135

>  <fragmenstein_outcome>  (68) 
acceptable

>  <fragmenstein_mode>  (68) 
expansion

>  <fragmenstein_error>  (68) 


>  <HIPPO Compound ID>  (68) 
8072

>  <Energy>  (68) 
20.914872

>  <scratch_subdir>  (68) 
/opt/xchem-fragalysis-2/maxwin/BulkDock/SCRATCH/511030/C13471-P6

$$$$
O=C(NCc1ccc2c(c1)CNC2)c1ncc(Br)cn1
     RDKit          3D

 20 22  0  0  0  0  0  0  0  0999 V2000
  -10.0041    5.9875  -14.0703 O   0  0  0  0  0  0  0  0  0  0  0  0
   -8.8519    5.8593  -14.1926 C   0  0  0  0  0  0  0  0  0  0  0  0
   -7.7082    6.0645  -13.1740 N   0  0  0  0  0  0  0  0  0  0  0  0
   -7.7522    6.3773  -11.7698 C   0  0  0  0  0  0  0  0  0  0  0  0
   -7.9911    5.1633  -10.9022 C   0  0  0  0  0  0  0  0  0  0  0  0
   -8.2944    3.9080  -11.4667 C   0  0  0  0  0  0  0  0  0  0  0  0
   -8.5909    2.8083  -10.6719 C   0  0  0  0  0  0  0  0  0  0  0  0
   -8.5717    2.9515   -9.3047 C   0  0  0  0  0  0  0  0  0  0  0  0
   -8.2765    4.1766   -8.7219 C   0  0  0  0  0  0  0  0  0  0  0  0
   -7.9771    5.2883   -9.4991 C   0  0  0  0  0  0  0  0  0  0  0  0
   -8.3582    4.0204   -7.2393 C   0  0  0  0  0  0  0  0  0  0  0  0
   -9.0683    2.7358   -7.0140 N   0  0  0  0  0  0  0  0  0  0  0  0
   -8.8228    1.9362   -8.2434 C   0  0  0  0  0  0  0  0  0  0  0  0
   -8.2666    5.3591  -15.5071 C   0  0  0  0  0  0  0  0  0  0  0  0
   -6.9340    5.5516  -15.6383 N   0  0  0  0  0  0  0  0  0  0  0  0
   -6.4299    5.2430  -16.8443 C   0  0  0  0  0  0  0  0  0  0  0  0
   -7.1836    4.7722  -17.8931 C   0  0  0  0  0  0  0  0  0  0  0  0
   -6.3796    4.4868  -19.5433 Br  0  0  0  0  0  0  0  0  0  0  0  0
   -8.5204    4.5736  -17.6482 C   0  0  0  0  0  0  0  0  0  0  0  0
   -9.0890    4.8592  -16.4567 N   0  0  0  0  0  0  0  0  0  0  0  0
  1  2  2  0
  2  3  1  0
  3  4  1  0
  4  5  1  0
  5  6  2  0
  6  7  1  0
  7  8  2  0
  8  9  1  0
  9 10  2  0
  9 11  1  0
 11 12  1  0
 12 13  1  0
  2 14  1  0
 14 15  2  0
 15 16  1  0
 16 17  2  0
 17 18  1  0
 17 19  1  0
 19 20  2  0
 10  5  1  0
 20 14  1  0
 13  8  1  0
M  END
>  <inchikey>  (69) 
KRINDZVGGRTXMB-UHFFFAOYSA-N

>  <alias>  (69) 
O=C(NCc1ccc2c(c1)CNC2)c1ncc(Br)cn1

>  <tags>  (69) 
{'openbind_xx01zvns2b_c1_knitwork_pure', 'fragmenstein_placed'}

>  <HIPPO Pose ID>  (69) 
34088

>  <ref_pdb>  (69) 
71

>  <smiles>  (69) 
C6184-P52

>  <fragmenstein_runtime>  (69) 
2.811696

>  <fragmenstein_outcome>  (69) 
acceptable

>  <fragmenstein_mode>  (69) 
expansion

>  <fragmenstein_error>  (69) 


>  <HIPPO Compound ID>  (69) 
7561

>  <Energy>  (69) 
103.009682

>  <scratch_subdir>  (69) 
/opt/xchem-fragalysis-2/maxwin/BulkDock/SCRATCH/511030/C6184-P52

$$$$
CCOc1ccnc(NCc2ccc3c(c2)CNC3)n1
     RDKit          3D

 20 22  0  0  0  0  0  0  0  0999 V2000
   -3.7736    4.8079  -16.7013 C   0  0  0  0  0  0  0  0  0  0  0  0
   -4.7188    5.5598  -17.6197 C   0  0  0  0  0  0  0  0  0  0  0  0
   -5.7625    4.7416  -18.1464 O   0  0  0  0  0  0  0  0  0  0  0  0
   -6.8599    4.6827  -17.3183 C   0  0  0  0  0  0  0  0  0  0  0  0
   -8.0960    4.5678  -17.8923 C   0  0  0  0  0  0  0  0  0  0  0  0
   -9.1360    4.5528  -16.9976 C   0  0  0  0  0  0  0  0  0  0  0  0
   -8.9761    4.6340  -15.6574 N   0  0  0  0  0  0  0  0  0  0  0  0
   -7.7219    4.6584  -15.2061 C   0  0  0  0  0  0  0  0  0  0  0  0
   -7.4663    4.5924  -13.8331 N   0  0  0  0  0  0  0  0  0  0  0  0
   -7.2041    5.9194  -13.2927 C   0  0  0  0  0  0  0  0  0  0  0  0
   -5.7425    6.3151  -13.4302 C   0  0  0  0  0  0  0  0  0  0  0  0
   -5.3642    7.2880  -14.3806 C   0  0  0  0  0  0  0  0  0  0  0  0
   -4.0287    7.6703  -14.5406 C   0  0  0  0  0  0  0  0  0  0  0  0
   -3.0751    7.0509  -13.7573 C   0  0  0  0  0  0  0  0  0  0  0  0
   -3.4310    6.0823  -12.8259 C   0  0  0  0  0  0  0  0  0  0  0  0
   -4.7527    5.7095  -12.6387 C   0  0  0  0  0  0  0  0  0  0  0  0
   -2.2045    5.6054  -12.1236 C   0  0  0  0  0  0  0  0  0  0  0  0
   -1.0647    6.1068  -12.9360 N   0  0  0  0  0  0  0  0  0  0  0  0
   -1.5991    7.2561  -13.7130 C   0  0  0  0  0  0  0  0  0  0  0  0
   -6.6511    4.7006  -15.9931 N   0  0  0  0  0  0  0  0  0  0  0  0
  1  2  1  0
  2  3  1  0
  3  4  1  0
  4  5  2  0
  5  6  1  0
  6  7  2  0
  7  8  1  0
  8  9  1  0
  9 10  1  0
 10 11  1  0
 11 12  2  0
 12 13  1  0
 13 14  2  0
 14 15  1  0
 15 16  2  0
 15 17  1  0
 17 18  1  0
 18 19  1  0
  8 20  2  0
 20  4  1  0
 16 11  1  0
 19 14  1  0
M  END
>  <inchikey>  (70) 
OEPRRPBBQQFXIO-UHFFFAOYSA-N

>  <alias>  (70) 
CCOc1ccnc(NCc2ccc3c(c2)CNC3)n1

>  <tags>  (70) 
{'openbind_xx01zvns2b_c1_knitwork_pure', 'fragmenstein_placed'}

>  <HIPPO Pose ID>  (70) 
34089

>  <ref_pdb>  (70) 
71

>  <smiles>  (70) 
C6192-P52

>  <fragmenstein_runtime>  (70) 
8.472929

>  <fragmenstein_outcome>  (70) 
acceptable

>  <fragmenstein_mode>  (70) 
expansion

>  <fragmenstein_error>  (70) 


>  <HIPPO Compound ID>  (70) 
13018

>  <Energy>  (70) 
-77.855946

>  <scratch_subdir>  (70) 
/opt/xchem-fragalysis-2/maxwin/BulkDock/SCRATCH/511030/C6192-P52

$$$$
Cc1cnccc1NC[C@H]1CCC(=O)NC1
     RDKit          3D

 16 17  0  0  0  0  0  0  0  0999 V2000
   -8.2521    6.9473  -11.5084 C   0  0  0  0  0  0  0  0  0  0  0  0
   -8.1458    5.5932  -10.8796 C   0  0  0  0  0  0  0  0  0  0  0  0
   -7.9912    5.5102   -9.4951 C   0  0  0  0  0  0  0  0  0  0  0  0
   -7.9229    4.3621   -8.7901 N   0  0  0  0  0  0  0  0  0  0  0  0
   -8.0037    3.2217   -9.5046 C   0  0  0  0  0  0  0  0  0  0  0  0
   -8.1465    3.1893  -10.8831 C   0  0  0  0  0  0  0  0  0  0  0  0
   -8.2140    4.3918  -11.5981 C   0  0  0  0  0  0  0  0  0  0  0  0
   -8.3825    4.3391  -12.9959 N   0  0  0  0  0  0  0  0  0  0  0  0
   -7.2873    4.8937  -13.7997 C   0  0  0  0  0  0  0  0  0  0  0  0
   -7.4100    4.3918  -15.2418 C   0  0  1  0  0  0  0  0  0  0  0  0
   -8.7815    4.6393  -15.8471 C   0  0  0  0  0  0  0  0  0  0  0  0
   -8.8937    3.9997  -17.2195 C   0  0  0  0  0  0  0  0  0  0  0  0
   -7.6716    4.1210  -18.0889 C   0  0  0  0  0  0  0  0  0  0  0  0
   -7.6723    3.7021  -19.2425 O   0  0  0  0  0  0  0  0  0  0  0  0
   -6.5301    4.6239  -17.5363 N   0  0  0  0  0  0  0  0  0  0  0  0
   -6.3600    5.0112  -16.1541 C   0  0  0  0  0  0  0  0  0  0  0  0
  1  2  1  0
  2  3  2  0
  3  4  1  0
  4  5  2  0
  5  6  1  0
  6  7  2  0
  7  8  1  0
  8  9  1  0
 10  9  1  1
 10 11  1  0
 11 12  1  0
 12 13  1  0
 13 14  2  0
 13 15  1  0
 15 16  1  0
  7  2  1  0
 16 10  1  0
M  END
>  <inchikey>  (71) 
FRPOFVZZINZOIA-UHFFFAOYSA-N

>  <alias>  (71) 
Cc1cnccc1NC[C@H]1CCC(=O)NC1

>  <tags>  (71) 
{'openbind_xx01zvns2b_c1_knitwork_pure', 'fragmenstein_placed'}

>  <HIPPO Pose ID>  (71) 
34104

>  <ref_pdb>  (71) 
71

>  <smiles>  (71) 
C50068-P71

>  <fragmenstein_runtime>  (71) 
1.020219

>  <fragmenstein_outcome>  (71) 
acceptable

>  <fragmenstein_mode>  (71) 
expansion

>  <fragmenstein_error>  (71) 


>  <HIPPO Compound ID>  (71) 
1031

>  <Energy>  (71) 
-0.730116

>  <scratch_subdir>  (71) 
/opt/xchem-fragalysis-2/maxwin/BulkDock/SCRATCH/511030/C50068-P71

$$$$
CCc1cc(NC[C@H]2CCC(=O)NC2)ccn1
     RDKit          3D

 17 18  0  0  0  0  0  0  0  0999 V2000
   -6.5240    1.6029   -9.8493 C   0  0  0  0  0  0  0  0  0  0  0  0
   -7.8141    2.2249   -9.3286 C   0  0  0  0  0  0  0  0  0  0  0  0
   -7.9923    3.6118   -9.8707 C   0  0  0  0  0  0  0  0  0  0  0  0
   -8.1405    3.8028  -11.2415 C   0  0  0  0  0  0  0  0  0  0  0  0
   -8.2564    5.0961  -11.7332 C   0  0  0  0  0  0  0  0  0  0  0  0
   -8.3621    5.3263  -13.1137 N   0  0  0  0  0  0  0  0  0  0  0  0
   -7.1033    5.1465  -13.8454 C   0  0  0  0  0  0  0  0  0  0  0  0
   -7.3370    4.4914  -15.2129 C   0  0  1  0  0  0  0  0  0  0  0  0
   -8.7393    4.6598  -15.7754 C   0  0  0  0  0  0  0  0  0  0  0  0
   -8.9025    3.9257  -17.0936 C   0  0  0  0  0  0  0  0  0  0  0  0
   -7.7551    4.0601  -18.0540 C   0  0  0  0  0  0  0  0  0  0  0  0
   -7.8462    3.6663  -19.2125 O   0  0  0  0  0  0  0  0  0  0  0  0
   -6.5690    4.5294  -17.5757 N   0  0  0  0  0  0  0  0  0  0  0  0
   -6.3266    5.0048  -16.2357 C   0  0  0  0  0  0  0  0  0  0  0  0
   -8.2151    6.1567  -10.8342 C   0  0  0  0  0  0  0  0  0  0  0  0
   -8.0791    5.8781   -9.4858 C   0  0  0  0  0  0  0  0  0  0  0  0
   -7.9632    4.6356   -8.9842 N   0  0  0  0  0  0  0  0  0  0  0  0
  1  2  1  0
  2  3  1  0
  3  4  2  0
  4  5  1  0
  5  6  1  0
  6  7  1  0
  8  7  1  1
  8  9  1  0
  9 10  1  0
 10 11  1  0
 11 12  2  0
 11 13  1  0
 13 14  1  0
  5 15  2  0
 15 16  1  0
 16 17  2  0
 17  3  1  0
 14  8  1  0
M  END
>  <inchikey>  (72) 
PHOLLIYMGGYBFC-UHFFFAOYSA-N

>  <alias>  (72) 
CCc1cc(NC[C@H]2CCC(=O)NC2)ccn1

>  <tags>  (72) 
{'openbind_xx01zvns2b_c1_knitwork_pure', 'fragmenstein_placed'}

>  <HIPPO Pose ID>  (72) 
34105

>  <ref_pdb>  (72) 
71

>  <smiles>  (72) 
C50069-P71

>  <fragmenstein_runtime>  (72) 
2.182691

>  <fragmenstein_outcome>  (72) 
acceptable

>  <fragmenstein_mode>  (72) 
expansion

>  <fragmenstein_error>  (72) 


>  <HIPPO Compound ID>  (72) 
50069

>  <Energy>  (72) 
-1.810873

>  <scratch_subdir>  (72) 
/opt/xchem-fragalysis-2/maxwin/BulkDock/SCRATCH/511030/C50069-P71

$$$$
O=C1CC[C@H](CNc2ccnc(C(F)(F)F)c2)CN1
     RDKit          3D

 19 20  0  0  0  0  0  0  0  0999 V2000
   -7.6725    3.7257  -19.2161 O   0  0  0  0  0  0  0  0  0  0  0  0
   -7.6753    4.1434  -18.0621 C   0  0  0  0  0  0  0  0  0  0  0  0
   -8.8895    3.9896  -17.1862 C   0  0  0  0  0  0  0  0  0  0  0  0
   -8.7878    4.6404  -15.8188 C   0  0  0  0  0  0  0  0  0  0  0  0
   -7.4081    4.4306  -15.2183 C   0  0  2  0  0  0  0  0  0  0  0  0
   -7.3133    4.9366  -13.7755 C   0  0  0  0  0  0  0  0  0  0  0  0
   -8.2963    4.2220  -12.9580 N   0  0  0  0  0  0  0  0  0  0  0  0
   -8.1688    4.2861  -11.5665 C   0  0  0  0  0  0  0  0  0  0  0  0
   -8.3334    3.1300  -10.8051 C   0  0  0  0  0  0  0  0  0  0  0  0
   -8.2696    3.2114   -9.4248 C   0  0  0  0  0  0  0  0  0  0  0  0
   -8.0866    4.3682   -8.7538 N   0  0  0  0  0  0  0  0  0  0  0  0
   -7.9566    5.5048   -9.4934 C   0  0  0  0  0  0  0  0  0  0  0  0
   -7.7668    6.8259   -8.7668 C   0  0  0  0  0  0  0  0  0  0  0  0
   -6.4834    7.0144   -8.3368 F   0  0  0  0  0  0  0  0  0  0  0  0
   -8.0435    7.9155   -9.5466 F   0  0  0  0  0  0  0  0  0  0  0  0
   -8.5539    6.9619   -7.6590 F   0  0  0  0  0  0  0  0  0  0  0  0
   -7.9771    5.4893  -10.8914 C   0  0  0  0  0  0  0  0  0  0  0  0
   -6.3734    5.0679  -16.1337 C   0  0  0  0  0  0  0  0  0  0  0  0
   -6.5441    4.6773  -17.5159 N   0  0  0  0  0  0  0  0  0  0  0  0
  1  2  2  0
  2  3  1  0
  3  4  1  0
  4  5  1  0
  5  6  1  1
  6  7  1  0
  7  8  1  0
  8  9  2  0
  9 10  1  0
 10 11  2  0
 11 12  1  0
 12 13  1  0
 13 14  1  0
 13 15  1  0
 13 16  1  0
 12 17  2  0
  5 18  1  0
 18 19  1  0
 19  2  1  0
 17  8  1  0
M  END
>  <inchikey>  (73) 
JPSLWFYTMYWPSL-UHFFFAOYSA-N

>  <alias>  (73) 
O=C1CC[C@H](CNc2ccnc(C(F)(F)F)c2)CN1

>  <tags>  (73) 
{'openbind_xx01zvns2b_c1_knitwork_pure', 'fragmenstein_placed'}

>  <HIPPO Pose ID>  (73) 
34106

>  <ref_pdb>  (73) 
71

>  <smiles>  (73) 
C50070-P71

>  <fragmenstein_runtime>  (73) 
2.09344

>  <fragmenstein_outcome>  (73) 
acceptable

>  <fragmenstein_mode>  (73) 
expansion

>  <fragmenstein_error>  (73) 


>  <HIPPO Compound ID>  (73) 
3744

>  <Energy>  (73) 
49.001669

>  <scratch_subdir>  (73) 
/opt/xchem-fragalysis-2/maxwin/BulkDock/SCRATCH/511030/C50070-P71

$$$$
C[C@@H](N[C@H]1CCC(=O)NC1)c1cccc(Cl)n1
     RDKit          3D

 17 18  0  0  0  0  0  0  0  0999 V2000
   -6.3589    6.2066  -13.7512 C   0  0  0  0  0  0  0  0  0  0  0  0
   -6.6995    4.7571  -14.0958 C   0  0  1  0  0  0  0  0  0  0  0  0
   -7.7264    4.1763  -13.2281 N   0  0  0  0  0  0  0  0  0  0  0  0
   -7.4752    4.1874  -11.7892 C   0  0  1  0  0  0  0  0  0  0  0  0
   -8.1154    5.3944  -11.1002 C   0  0  0  0  0  0  0  0  0  0  0  0
   -7.8777    5.3630   -9.5991 C   0  0  0  0  0  0  0  0  0  0  0  0
   -8.2390    4.0480   -8.9488 C   0  0  0  0  0  0  0  0  0  0  0  0
   -8.6008    3.9925   -7.7755 O   0  0  0  0  0  0  0  0  0  0  0  0
   -8.0223    2.9248   -9.6961 N   0  0  0  0  0  0  0  0  0  0  0  0
   -8.0545    2.9107  -11.1467 C   0  0  0  0  0  0  0  0  0  0  0  0
   -7.0511    4.6737  -15.5935 C   0  0  0  0  0  0  0  0  0  0  0  0
   -6.0129    4.8045  -16.5253 C   0  0  0  0  0  0  0  0  0  0  0  0
   -6.2844    4.6908  -17.8843 C   0  0  0  0  0  0  0  0  0  0  0  0
   -7.5834    4.4381  -18.2876 C   0  0  0  0  0  0  0  0  0  0  0  0
   -8.5596    4.3602  -17.3123 C   0  0  0  0  0  0  0  0  0  0  0  0
  -10.1962    4.1840  -17.7896 Cl  0  0  0  0  0  0  0  0  0  0  0  0
   -8.3430    4.5086  -15.9825 N   0  0  0  0  0  0  0  0  0  0  0  0
  2  1  1  1
  2  3  1  0
  4  3  1  6
  4  5  1  0
  5  6  1  0
  6  7  1  0
  7  8  2  0
  7  9  1  0
  9 10  1  0
  2 11  1  0
 11 12  2  0
 12 13  1  0
 13 14  2  0
 14 15  1  0
 15 16  1  0
 15 17  2  0
 10  4  1  0
 17 11  1  0
M  END
>  <inchikey>  (74) 
RWSFKXCFJDTSQR-UHFFFAOYSA-N

>  <alias>  (74) 
C[C@@H](N[C@H]1CCC(=O)NC1)c1cccc(Cl)n1

>  <tags>  (74) 
{'openbind_xx01zvns2b_c1_knitwork_pure', 'fragmenstein_placed'}

>  <HIPPO Pose ID>  (74) 
34109

>  <ref_pdb>  (74) 
71

>  <smiles>  (74) 
C50074-P71

>  <fragmenstein_runtime>  (74) 
1.553903

>  <fragmenstein_outcome>  (74) 
acceptable

>  <fragmenstein_mode>  (74) 
expansion

>  <fragmenstein_error>  (74) 


>  <HIPPO Compound ID>  (74) 
10581

>  <Energy>  (74) 
30.14864

>  <scratch_subdir>  (74) 
/opt/xchem-fragalysis-2/maxwin/BulkDock/SCRATCH/511030/C50074-P71

$$$$
C[C@H](N[C@@H]1CCC(=O)NC1)c1cc(Cl)ccn1
     RDKit          3D

 17 18  0  0  0  0  0  0  0  0999 V2000
   -5.6006    5.5905  -13.6875 C   0  0  0  0  0  0  0  0  0  0  0  0
   -7.0400    5.1368  -13.9613 C   0  0  2  0  0  0  0  0  0  0  0  0
   -7.3445    3.9819  -13.1060 N   0  0  0  0  0  0  0  0  0  0  0  0
   -8.0095    4.2373  -11.8223 C   0  0  2  0  0  0  0  0  0  0  0  0
   -7.3127    5.2630  -10.9230 C   0  0  0  0  0  0  0  0  0  0  0  0
   -8.0594    5.4528   -9.6122 C   0  0  0  0  0  0  0  0  0  0  0  0
   -8.4096    4.1663   -8.9032 C   0  0  0  0  0  0  0  0  0  0  0  0
   -8.6247    4.1436   -7.6924 O   0  0  0  0  0  0  0  0  0  0  0  0
   -8.5990    3.0628   -9.6818 N   0  0  0  0  0  0  0  0  0  0  0  0
   -8.0923    2.9147  -11.0300 C   0  0  0  0  0  0  0  0  0  0  0  0
   -7.2195    4.8412  -15.4623 C   0  0  0  0  0  0  0  0  0  0  0  0
   -8.4799    4.5215  -15.9470 C   0  0  0  0  0  0  0  0  0  0  0  0
   -8.6421    4.3356  -17.3142 C   0  0  0  0  0  0  0  0  0  0  0  0
  -10.2209    4.1361  -17.9517 Cl  0  0  0  0  0  0  0  0  0  0  0  0
   -7.5654    4.4295  -18.1762 C   0  0  0  0  0  0  0  0  0  0  0  0
   -6.3475    4.7508  -17.6217 C   0  0  0  0  0  0  0  0  0  0  0  0
   -6.1587    4.9798  -16.3018 N   0  0  0  0  0  0  0  0  0  0  0  0
  2  1  1  6
  2  3  1  0
  4  3  1  6
  4  5  1  0
  5  6  1  0
  6  7  1  0
  7  8  2  0
  7  9  1  0
  9 10  1  0
  2 11  1  0
 11 12  2  0
 12 13  1  0
 13 14  1  0
 13 15  2  0
 15 16  1  0
 16 17  2  0
 10  4  1  0
 17 11  1  0
M  END
>  <inchikey>  (75) 
VBLAQQKMTPLYCZ-UHFFFAOYSA-N

>  <alias>  (75) 
C[C@H](N[C@@H]1CCC(=O)NC1)c1cc(Cl)ccn1

>  <tags>  (75) 
{'openbind_xx01zvns2b_c1_knitwork_pure', 'fragmenstein_placed'}

>  <HIPPO Pose ID>  (75) 
34110

>  <ref_pdb>  (75) 
71

>  <smiles>  (75) 
C50075-P71

>  <fragmenstein_runtime>  (75) 
1.228831

>  <fragmenstein_outcome>  (75) 
acceptable

>  <fragmenstein_mode>  (75) 
expansion

>  <fragmenstein_error>  (75) 


>  <HIPPO Compound ID>  (75) 
2328

>  <Energy>  (75) 
19.232889

>  <scratch_subdir>  (75) 
/opt/xchem-fragalysis-2/maxwin/BulkDock/SCRATCH/511030/C50075-P71

$$$$
CCc1ccncc1NC(=O)[C@@H]1CCC(=O)NC1
     RDKit          3D

 18 19  0  0  0  0  0  0  0  0999 V2000
   -6.6020    7.5885  -11.2474 C   0  0  0  0  0  0  0  0  0  0  0  0
   -7.9552    6.9184  -11.4445 C   0  0  0  0  0  0  0  0  0  0  0  0
   -7.9495    5.4685  -11.0337 C   0  0  0  0  0  0  0  0  0  0  0  0
   -7.9987    5.2196   -9.6444 C   0  0  0  0  0  0  0  0  0  0  0  0
   -8.1326    3.9245   -9.1774 C   0  0  0  0  0  0  0  0  0  0  0  0
   -8.2409    2.8659   -9.9894 N   0  0  0  0  0  0  0  0  0  0  0  0
   -8.1722    3.1117  -11.3163 C   0  0  0  0  0  0  0  0  0  0  0  0
   -7.9946    4.3695  -11.9034 C   0  0  0  0  0  0  0  0  0  0  0  0
   -7.8998    4.3843  -13.3048 N   0  0  0  0  0  0  0  0  0  0  0  0
   -7.2890    5.4474  -14.2666 C   0  0  0  0  0  0  0  0  0  0  0  0
   -6.7035    6.4359  -14.0328 O   0  0  0  0  0  0  0  0  0  0  0  0
   -7.6228    5.1237  -15.7347 C   0  0  2  0  0  0  0  0  0  0  0  0
   -8.5054    3.9527  -16.1005 C   0  0  0  0  0  0  0  0  0  0  0  0
   -8.7950    3.8867  -17.5882 C   0  0  0  0  0  0  0  0  0  0  0  0
   -7.5532    3.9950  -18.4239 C   0  0  0  0  0  0  0  0  0  0  0  0
   -7.4535    3.4199  -19.5014 O   0  0  0  0  0  0  0  0  0  0  0  0
   -6.5588    4.8121  -17.9602 N   0  0  0  0  0  0  0  0  0  0  0  0
   -6.3405    5.0976  -16.5557 C   0  0  0  0  0  0  0  0  0  0  0  0
  1  2  1  0
  2  3  1  0
  3  4  2  0
  4  5  1  0
  5  6  2  0
  6  7  1  0
  7  8  2  0
  8  9  1  0
  9 10  1  0
 10 11  2  0
 12 10  1  1
 12 13  1  0
 13 14  1  0
 14 15  1  0
 15 16  2  0
 15 17  1  0
 17 18  1  0
  8  3  1  0
 18 12  1  0
M  END
>  <inchikey>  (76) 
OZNGXAMXWWUENG-UHFFFAOYSA-N

>  <alias>  (76) 
CCc1ccncc1NC(=O)[C@@H]1CCC(=O)NC1

>  <tags>  (76) 
{'openbind_xx01zvns2b_c1_knitwork_pure', 'fragmenstein_placed'}

>  <HIPPO Pose ID>  (76) 
34111

>  <ref_pdb>  (76) 
71

>  <smiles>  (76) 
C50078-P71

>  <fragmenstein_runtime>  (76) 
1.996709

>  <fragmenstein_outcome>  (76) 
acceptable

>  <fragmenstein_mode>  (76) 
expansion

>  <fragmenstein_error>  (76) 


>  <HIPPO Compound ID>  (76) 
51060

>  <Energy>  (76) 
28.678974

>  <scratch_subdir>  (76) 
/opt/xchem-fragalysis-2/maxwin/BulkDock/SCRATCH/511030/C50078-P71

$$$$
CCSc1ccc(NC(=O)[C@@H]2CCC(=O)NC2)cn1
     RDKit          3D

 19 20  0  0  0  0  0  0  0  0999 V2000
   -8.9168    1.5605   -7.0353 C   0  0  0  0  0  0  0  0  0  0  0  0
   -9.5950    2.8778   -7.2854 C   0  0  0  0  0  0  0  0  0  0  0  0
   -8.4087    4.2535   -7.4216 S   0  0  0  0  0  0  0  0  0  0  0  0
   -8.1411    4.2687   -9.1842 C   0  0  0  0  0  0  0  0  0  0  0  0
   -7.7158    5.4496   -9.7757 C   0  0  0  0  0  0  0  0  0  0  0  0
   -7.5566    5.4924  -11.1604 C   0  0  0  0  0  0  0  0  0  0  0  0
   -7.8273    4.3604  -11.9203 C   0  0  0  0  0  0  0  0  0  0  0  0
   -7.7442    4.3845  -13.3114 N   0  0  0  0  0  0  0  0  0  0  0  0
   -7.3747    5.5436  -14.2813 C   0  0  0  0  0  0  0  0  0  0  0  0
   -7.0086    6.6339  -14.0567 O   0  0  0  0  0  0  0  0  0  0  0  0
   -7.6082    5.1377  -15.7445 C   0  0  2  0  0  0  0  0  0  0  0  0
   -8.5021    3.9699  -16.0921 C   0  0  0  0  0  0  0  0  0  0  0  0
   -8.7663    3.8878  -17.5843 C   0  0  0  0  0  0  0  0  0  0  0  0
   -7.5068    3.9716  -18.4004 C   0  0  0  0  0  0  0  0  0  0  0  0
   -7.4149    3.4150  -19.4889 O   0  0  0  0  0  0  0  0  0  0  0  0
   -6.4842    4.7384  -17.9092 N   0  0  0  0  0  0  0  0  0  0  0  0
   -6.2982    5.0533  -16.5045 C   0  0  0  0  0  0  0  0  0  0  0  0
   -8.2247    3.2174  -11.2414 C   0  0  0  0  0  0  0  0  0  0  0  0
   -8.3815    3.1512   -9.8991 N   0  0  0  0  0  0  0  0  0  0  0  0
  1  2  1  0
  2  3  1  0
  3  4  1  0
  4  5  2  0
  5  6  1  0
  6  7  2  0
  7  8  1  0
  8  9  1  0
  9 10  2  0
 11  9  1  1
 11 12  1  0
 12 13  1  0
 13 14  1  0
 14 15  2  0
 14 16  1  0
 16 17  1  0
  7 18  1  0
 18 19  2  0
 19  4  1  0
 17 11  1  0
M  END
>  <inchikey>  (77) 
WXAWBOVOOAVTGX-UHFFFAOYSA-N

>  <alias>  (77) 
CCSc1ccc(NC(=O)[C@@H]2CCC(=O)NC2)cn1

>  <tags>  (77) 
{'openbind_xx01zvns2b_c1_knitwork_pure', 'fragmenstein_placed'}

>  <HIPPO Pose ID>  (77) 
34118

>  <ref_pdb>  (77) 
71

>  <smiles>  (77) 
C50086-P71

>  <fragmenstein_runtime>  (77) 
2.78865

>  <fragmenstein_outcome>  (77) 
acceptable

>  <fragmenstein_mode>  (77) 
expansion

>  <fragmenstein_error>  (77) 


>  <HIPPO Compound ID>  (77) 
50914

>  <Energy>  (77) 
1.956916

>  <scratch_subdir>  (77) 
/opt/xchem-fragalysis-2/maxwin/BulkDock/SCRATCH/511030/C50086-P71

$$$$
COc1cnc2ccccc2c1C(=O)NC1CCNCC1
     RDKit          3D

 21 23  0  0  0  0  0  0  0  0999 V2000
   -3.8407    6.8613  -13.3034 C   0  0  0  0  0  0  0  0  0  0  0  0
   -4.1467    5.4986  -13.5954 O   0  0  0  0  0  0  0  0  0  0  0  0
   -4.8954    5.4001  -14.7346 C   0  0  0  0  0  0  0  0  0  0  0  0
   -4.3044    5.4589  -15.9760 C   0  0  0  0  0  0  0  0  0  0  0  0
   -4.9762    5.2852  -17.1354 N   0  0  0  0  0  0  0  0  0  0  0  0
   -6.2934    4.9977  -17.0825 C   0  0  0  0  0  0  0  0  0  0  0  0
   -6.9823    4.7901  -18.2682 C   0  0  0  0  0  0  0  0  0  0  0  0
   -8.3433    4.4745  -18.2883 C   0  0  0  0  0  0  0  0  0  0  0  0
   -9.0477    4.3680  -17.0994 C   0  0  0  0  0  0  0  0  0  0  0  0
   -8.3854    4.5770  -15.8934 C   0  0  0  0  0  0  0  0  0  0  0  0
   -7.0040    4.8927  -15.8695 C   0  0  0  0  0  0  0  0  0  0  0  0
   -6.2571    5.1124  -14.6946 C   0  0  0  0  0  0  0  0  0  0  0  0
   -6.8785    5.0339  -13.3632 C   0  0  0  0  0  0  0  0  0  0  0  0
   -7.0526    6.0098  -12.7519 O   0  0  0  0  0  0  0  0  0  0  0  0
   -7.1044    3.5639  -12.9787 N   0  0  0  0  0  0  0  0  0  0  0  0
   -7.5051    2.9716  -11.7197 C   0  0  0  0  0  0  0  0  0  0  0  0
   -8.1395    3.9688  -10.7579 C   0  0  0  0  0  0  0  0  0  0  0  0
   -8.5079    3.2856   -9.4420 C   0  0  0  0  0  0  0  0  0  0  0  0
   -7.5037    2.3390   -8.9703 N   0  0  0  0  0  0  0  0  0  0  0  0
   -6.2023    2.4931   -9.5882 C   0  0  0  0  0  0  0  0  0  0  0  0
   -6.2895    2.2770  -11.0928 C   0  0  0  0  0  0  0  0  0  0  0  0
  1  2  1  0
  2  3  1  0
  3  4  2  0
  4  5  1  0
  5  6  2  0
  6  7  1  0
  7  8  2  0
  8  9  1  0
  9 10  2  0
 10 11  1  0
 11 12  2  0
 12 13  1  0
 13 14  2  0
 13 15  1  0
 15 16  1  0
 16 17  1  0
 17 18  1  0
 18 19  1  0
 19 20  1  0
 20 21  1  0
 12  3  1  0
 21 16  1  0
 11  6  1  0
M  END
>  <inchikey>  (78) 
YLGFMGSSGVSZNN-UHFFFAOYSA-N

>  <alias>  (78) 
COc1cnc2ccccc2c1C(=O)NC1CCNCC1

>  <tags>  (78) 
{'openbind_xx01zvns2b_c1_knitwork_pure', 'fragmenstein_placed'}

>  <HIPPO Pose ID>  (78) 
34212

>  <ref_pdb>  (78) 
71

>  <smiles>  (78) 
C12411-P94

>  <fragmenstein_runtime>  (78) 
1.644099

>  <fragmenstein_outcome>  (78) 
acceptable

>  <fragmenstein_mode>  (78) 
expansion

>  <fragmenstein_error>  (78) 


>  <HIPPO Compound ID>  (78) 
5576

>  <Energy>  (78) 
57.72746

>  <scratch_subdir>  (78) 
/opt/xchem-fragalysis-2/maxwin/BulkDock/SCRATCH/511030/C12411-P94

$$$$
COc1cc(C2CCNCC2)c2ccccc2n1
     RDKit          3D

 18 20  0  0  0  0  0  0  0  0999 V2000
   -2.4803    6.0301  -15.9566 C   0  0  0  0  0  0  0  0  0  0  0  0
   -3.1314    5.5435  -14.7885 O   0  0  0  0  0  0  0  0  0  0  0  0
   -4.4501    5.1937  -15.0149 C   0  0  0  0  0  0  0  0  0  0  0  0
   -5.1460    4.7120  -13.9194 C   0  0  0  0  0  0  0  0  0  0  0  0
   -6.4733    4.3028  -14.0827 C   0  0  0  0  0  0  0  0  0  0  0  0
   -7.1884    3.5712  -12.9363 C   0  0  0  0  0  0  0  0  0  0  0  0
   -6.3510    2.4747  -12.2231 C   0  0  0  0  0  0  0  0  0  0  0  0
   -6.1006    2.7783  -10.7471 C   0  0  0  0  0  0  0  0  0  0  0  0
   -7.3232    3.0092   -9.9860 N   0  0  0  0  0  0  0  0  0  0  0  0
   -8.3547    3.7464  -10.7152 C   0  0  0  0  0  0  0  0  0  0  0  0
   -7.8248    4.5294  -11.9197 C   0  0  0  0  0  0  0  0  0  0  0  0
   -7.0767    4.5051  -15.3626 C   0  0  0  0  0  0  0  0  0  0  0  0
   -8.4406    4.2683  -15.6506 C   0  0  0  0  0  0  0  0  0  0  0  0
   -8.9501    4.3586  -16.9457 C   0  0  0  0  0  0  0  0  0  0  0  0
   -8.1066    4.7073  -17.9852 C   0  0  0  0  0  0  0  0  0  0  0  0
   -6.7764    5.0229  -17.7111 C   0  0  0  0  0  0  0  0  0  0  0  0
   -6.2504    4.9512  -16.4258 C   0  0  0  0  0  0  0  0  0  0  0  0
   -4.9650    5.2959  -16.2544 N   0  0  0  0  0  0  0  0  0  0  0  0
  1  2  1  0
  2  3  1  0
  3  4  2  0
  4  5  1  0
  5  6  1  0
  6  7  1  0
  7  8  1  0
  8  9  1  0
  9 10  1  0
 10 11  1  0
  5 12  2  0
 12 13  1  0
 13 14  2  0
 14 15  1  0
 15 16  2  0
 16 17  1  0
 17 18  2  0
 18  3  1  0
 11  6  1  0
 17 12  1  0
M  END
>  <inchikey>  (79) 
GUGYPDCSHHGCQV-UHFFFAOYSA-N

>  <alias>  (79) 
COc1cc(C2CCNCC2)c2ccccc2n1

>  <tags>  (79) 
{'openbind_xx01zvns2b_c1_knitwork_pure', 'fragmenstein_placed'}

>  <HIPPO Pose ID>  (79) 
34218

>  <ref_pdb>  (79) 
71

>  <smiles>  (79) 
C12424-P94

>  <fragmenstein_runtime>  (79) 
1.788339

>  <fragmenstein_outcome>  (79) 
acceptable

>  <fragmenstein_mode>  (79) 
expansion

>  <fragmenstein_error>  (79) 


>  <HIPPO Compound ID>  (79) 
51325

>  <Energy>  (79) 
31.82885

>  <scratch_subdir>  (79) 
/opt/xchem-fragalysis-2/maxwin/BulkDock/SCRATCH/511030/C12424-P94

$$$$
COc1cc(OC2CCNCC2)c2ccccc2n1
     RDKit          3D

 19 21  0  0  0  0  0  0  0  0999 V2000
   -2.3939    5.8053  -16.5651 C   0  0  0  0  0  0  0  0  0  0  0  0
   -2.9628    5.5332  -15.2889 O   0  0  0  0  0  0  0  0  0  0  0  0
   -4.3145    5.2512  -15.3550 C   0  0  0  0  0  0  0  0  0  0  0  0
   -4.9574    5.0618  -14.1510 C   0  0  0  0  0  0  0  0  0  0  0  0
   -6.3112    4.7564  -14.1785 C   0  0  0  0  0  0  0  0  0  0  0  0
   -6.9185    4.6267  -12.9506 O   0  0  0  0  0  0  0  0  0  0  0  0
   -7.2747    3.2638  -12.6093 C   0  0  0  0  0  0  0  0  0  0  0  0
   -6.1246    2.5103  -11.9287 C   0  0  0  0  0  0  0  0  0  0  0  0
   -5.8829    2.9707  -10.4934 C   0  0  0  0  0  0  0  0  0  0  0  0
   -7.1049    2.8895   -9.7098 N   0  0  0  0  0  0  0  0  0  0  0  0
   -8.1405    3.7557  -10.2563 C   0  0  0  0  0  0  0  0  0  0  0  0
   -8.4892    3.3402  -11.6815 C   0  0  0  0  0  0  0  0  0  0  0  0
   -7.0035    4.7011  -15.4101 C   0  0  0  0  0  0  0  0  0  0  0  0
   -8.3917    4.4716  -15.5386 C   0  0  0  0  0  0  0  0  0  0  0  0
   -8.9963    4.3915  -16.7937 C   0  0  0  0  0  0  0  0  0  0  0  0
   -8.2308    4.5588  -17.9380 C   0  0  0  0  0  0  0  0  0  0  0  0
   -6.8661    4.8213  -17.8195 C   0  0  0  0  0  0  0  0  0  0  0  0
   -6.2374    4.9001  -16.5827 C   0  0  0  0  0  0  0  0  0  0  0  0
   -4.9206    5.1693  -16.5553 N   0  0  0  0  0  0  0  0  0  0  0  0
  1  2  1  0
  2  3  1  0
  3  4  2  0
  4  5  1  0
  5  6  1  0
  6  7  1  0
  7  8  1  0
  8  9  1  0
  9 10  1  0
 10 11  1  0
 11 12  1  0
  5 13  2  0
 13 14  1  0
 14 15  2  0
 15 16  1  0
 16 17  2  0
 17 18  1  0
 18 19  2  0
 19  3  1  0
 12  7  1  0
 18 13  1  0
M  END
>  <inchikey>  (80) 
BSVKNTPFMXYNNQ-UHFFFAOYSA-N

>  <alias>  (80) 
COc1cc(OC2CCNCC2)c2ccccc2n1

>  <tags>  (80) 
{'openbind_xx01zvns2b_c1_knitwork_pure', 'fragmenstein_placed'}

>  <HIPPO Pose ID>  (80) 
34222

>  <ref_pdb>  (80) 
71

>  <smiles>  (80) 
C12436-P94

>  <fragmenstein_runtime>  (80) 
1.745541

>  <fragmenstein_outcome>  (80) 
acceptable

>  <fragmenstein_mode>  (80) 
expansion

>  <fragmenstein_error>  (80) 


>  <HIPPO Compound ID>  (80) 
48853

>  <Energy>  (80) 
16.083802

>  <scratch_subdir>  (80) 
/opt/xchem-fragalysis-2/maxwin/BulkDock/SCRATCH/511030/C12436-P94

$$$$
COc1cc(CC2CCNCC2)c2ccccc2n1
     RDKit          3D

 19 21  0  0  0  0  0  0  0  0999 V2000
   -2.3707    5.6074  -17.0006 C   0  0  0  0  0  0  0  0  0  0  0  0
   -2.8873    5.4053  -15.6892 O   0  0  0  0  0  0  0  0  0  0  0  0
   -4.2531    5.1938  -15.6840 C   0  0  0  0  0  0  0  0  0  0  0  0
   -4.8597    5.1327  -14.4458 C   0  0  0  0  0  0  0  0  0  0  0  0
   -6.2454    4.9465  -14.3760 C   0  0  0  0  0  0  0  0  0  0  0  0
   -6.8942    5.0489  -13.0124 C   0  0  0  0  0  0  0  0  0  0  0  0
   -7.4421    3.7682  -12.3526 C   0  0  0  0  0  0  0  0  0  0  0  0
   -6.3822    2.7168  -11.9728 C   0  0  0  0  0  0  0  0  0  0  0  0
   -6.2002    2.5711  -10.4609 C   0  0  0  0  0  0  0  0  0  0  0  0
   -7.4372    2.3094   -9.7355 N   0  0  0  0  0  0  0  0  0  0  0  0
   -8.6081    3.0219  -10.2404 C   0  0  0  0  0  0  0  0  0  0  0  0
   -8.2453    4.2068  -11.1161 C   0  0  0  0  0  0  0  0  0  0  0  0
   -6.9683    4.7839  -15.5889 C   0  0  0  0  0  0  0  0  0  0  0  0
   -8.3636    4.5642  -15.6637 C   0  0  0  0  0  0  0  0  0  0  0  0
   -9.0106    4.4118  -16.8912 C   0  0  0  0  0  0  0  0  0  0  0  0
   -8.2832    4.4986  -18.0671 C   0  0  0  0  0  0  0  0  0  0  0  0
   -6.9098    4.7292  -18.0095 C   0  0  0  0  0  0  0  0  0  0  0  0
   -6.2373    4.8635  -16.8026 C   0  0  0  0  0  0  0  0  0  0  0  0
   -4.9124    5.0754  -16.8484 N   0  0  0  0  0  0  0  0  0  0  0  0
  1  2  1  0
  2  3  1  0
  3  4  2  0
  4  5  1  0
  5  6  1  0
  6  7  1  0
  7  8  1  0
  8  9  1  0
  9 10  1  0
 10 11  1  0
 11 12  1  0
  5 13  2  0
 13 14  1  0
 14 15  2  0
 15 16  1  0
 16 17  2  0
 17 18  1  0
 18 19  2  0
 19  3  1  0
 12  7  1  0
 18 13  1  0
M  END
>  <inchikey>  (81) 
XPTVKAHHYCTMAC-UHFFFAOYSA-N

>  <alias>  (81) 
COc1cc(CC2CCNCC2)c2ccccc2n1

>  <tags>  (81) 
{'openbind_xx01zvns2b_c1_knitwork_pure', 'fragmenstein_placed'}

>  <HIPPO Pose ID>  (81) 
34223

>  <ref_pdb>  (81) 
71

>  <smiles>  (81) 
C12440-P94

>  <fragmenstein_runtime>  (81) 
1.441169

>  <fragmenstein_outcome>  (81) 
acceptable

>  <fragmenstein_mode>  (81) 
expansion

>  <fragmenstein_error>  (81) 


>  <HIPPO Compound ID>  (81) 
16956

>  <Energy>  (81) 
33.788953

>  <scratch_subdir>  (81) 
/opt/xchem-fragalysis-2/maxwin/BulkDock/SCRATCH/511030/C12440-P94

$$$$
FC(F)Cn1nc(-c2ccccn2)nc1-c1cccc2scnc12
     RDKit          3D

 24 27  0  0  0  0  0  0  0  0999 V2000
   -5.0836    8.6293  -19.3643 F   0  0  0  0  0  0  0  0  0  0  0  0
   -4.9796    7.6194  -20.2766 C   0  0  0  0  0  0  0  0  0  0  0  0
   -5.7829    7.9957  -21.3111 F   0  0  0  0  0  0  0  0  0  0  0  0
   -5.4968    6.3356  -19.6662 C   0  0  0  0  0  0  0  0  0  0  0  0
   -4.5609    5.7500  -18.7304 N   0  0  0  0  0  0  0  0  0  0  0  0
   -3.2596    5.7254  -19.0861 N   0  0  0  0  0  0  0  0  0  0  0  0
   -2.6425    5.5556  -17.9075 C   0  0  0  0  0  0  0  0  0  0  0  0
   -1.1968    5.7413  -17.7228 C   0  0  0  0  0  0  0  0  0  0  0  0
   -0.3338    5.7105  -18.8186 C   0  0  0  0  0  0  0  0  0  0  0  0
    1.0297    5.9050  -18.6106 C   0  0  0  0  0  0  0  0  0  0  0  0
    1.4947    6.1310  -17.3214 C   0  0  0  0  0  0  0  0  0  0  0  0
    0.5734    6.1509  -16.2873 C   0  0  0  0  0  0  0  0  0  0  0  0
   -0.7531    5.9623  -16.4547 N   0  0  0  0  0  0  0  0  0  0  0  0
   -3.5153    5.2717  -16.8815 N   0  0  0  0  0  0  0  0  0  0  0  0
   -4.7243    5.3528  -17.4188 C   0  0  0  0  0  0  0  0  0  0  0  0
   -5.9670    5.1407  -16.6732 C   0  0  0  0  0  0  0  0  0  0  0  0
   -5.9827    5.2873  -15.2725 C   0  0  0  0  0  0  0  0  0  0  0  0
   -7.1389    5.0588  -14.5337 C   0  0  0  0  0  0  0  0  0  0  0  0
   -8.3217    4.6880  -15.1695 C   0  0  0  0  0  0  0  0  0  0  0  0
   -8.3112    4.5427  -16.5649 C   0  0  0  0  0  0  0  0  0  0  0  0
   -9.6193    4.1378  -17.6093 S   0  0  0  0  0  0  0  0  0  0  0  0
   -8.5701    4.1976  -18.9424 C   0  0  0  0  0  0  0  0  0  0  0  0
   -7.3173    4.4840  -18.6841 N   0  0  0  0  0  0  0  0  0  0  0  0
   -7.1537    4.7323  -17.3275 C   0  0  0  0  0  0  0  0  0  0  0  0
  1  2  1  0
  2  3  1  0
  2  4  1  0
  4  5  1  0
  5  6  1  0
  6  7  2  0
  7  8  1  0
  8  9  2  0
  9 10  1  0
 10 11  2  0
 11 12  1  0
 12 13  2  0
  7 14  1  0
 14 15  2  0
 15 16  1  0
 16 17  2  0
 17 18  1  0
 18 19  2  0
 19 20  1  0
 20 21  1  0
 21 22  1  0
 22 23  2  0
 23 24  1  0
 15  5  1  0
 24 16  1  0
 13  8  1  0
 24 20  2  0
M  END
>  <inchikey>  (82) 
BLPKQVUEGVXIKS-UHFFFAOYSA-N

>  <alias>  (82) 
FC(F)Cn1nc(-c2ccccn2)nc1-c1cccc2scnc12

>  <tags>  (82) 
{'openbind_xx01zvns2b_c1_knitwork_pure', 'fragmenstein_placed'}

>  <HIPPO Pose ID>  (82) 
34318

>  <ref_pdb>  (82) 
71

>  <smiles>  (82) 
C50109-P37

>  <fragmenstein_runtime>  (82) 
1.373074

>  <fragmenstein_outcome>  (82) 
acceptable

>  <fragmenstein_mode>  (82) 
expansion

>  <fragmenstein_error>  (82) 


>  <HIPPO Compound ID>  (82) 
50822

>  <Energy>  (82) 
87.720417

>  <scratch_subdir>  (82) 
/opt/xchem-fragalysis-2/maxwin/BulkDock/SCRATCH/511030/C50109-P37

$$$$
O=C(NCC[C@H](O)c1cccs1)c1cnn2c1CNCC2
     RDKit          3D

 21 23  0  0  0  0  0  0  0  0999 V2000
   -7.2207    7.6463  -10.4422 O   0  0  0  0  0  0  0  0  0  0  0  0
   -7.4196    6.5069  -10.5746 C   0  0  0  0  0  0  0  0  0  0  0  0
   -7.2889    5.6132  -11.8126 N   0  0  0  0  0  0  0  0  0  0  0  0
   -6.7942    5.9091  -13.1331 C   0  0  0  0  0  0  0  0  0  0  0  0
   -7.9302    6.1482  -14.1215 C   0  0  0  0  0  0  0  0  0  0  0  0
   -8.5175    4.8715  -14.7427 C   0  0  2  0  0  0  0  0  0  0  0  0
   -8.0265    3.7008  -14.1024 O   0  0  0  0  0  0  0  0  0  0  0  0
   -8.2719    4.7320  -16.2233 C   0  0  0  0  0  0  0  0  0  0  0  0
   -9.1953    4.4940  -17.2276 C   0  0  0  0  0  0  0  0  0  0  0  0
   -8.6029    4.4695  -18.5212 C   0  0  0  0  0  0  0  0  0  0  0  0
   -7.2449    4.6795  -18.4711 C   0  0  0  0  0  0  0  0  0  0  0  0
   -6.6899    4.8908  -16.8730 S   0  0  0  0  0  0  0  0  0  0  0  0
   -7.8971    5.7719   -9.3874 C   0  0  0  0  0  0  0  0  0  0  0  0
   -8.2577    6.4490   -8.1881 C   0  0  0  0  0  0  0  0  0  0  0  0
   -8.6546    5.6409   -7.2084 N   0  0  0  0  0  0  0  0  0  0  0  0
   -8.5145    4.4230   -7.7550 N   0  0  0  0  0  0  0  0  0  0  0  0
   -8.0990    4.4294   -9.0680 C   0  0  0  0  0  0  0  0  0  0  0  0
   -7.9608    3.1260   -9.7814 C   0  0  0  0  0  0  0  0  0  0  0  0
   -7.8698    1.9977   -8.8572 N   0  0  0  0  0  0  0  0  0  0  0  0
   -8.9348    2.0281   -7.8563 C   0  0  0  0  0  0  0  0  0  0  0  0
   -8.7694    3.2391   -6.9548 C   0  0  0  0  0  0  0  0  0  0  0  0
  1  2  2  0
  2  3  1  0
  3  4  1  0
  4  5  1  0
  5  6  1  0
  6  7  1  1
  6  8  1  0
  8  9  2  0
  9 10  1  0
 10 11  2  0
 11 12  1  0
  2 13  1  0
 13 14  1  0
 14 15  2  0
 15 16  1  0
 16 17  1  0
 17 18  1  0
 18 19  1  0
 19 20  1  0
 20 21  1  0
 12  8  1  0
 17 13  2  0
 21 16  1  0
M  END
>  <inchikey>  (83) 
DDICYRIQIHYWMP-UHFFFAOYSA-N

>  <alias>  (83) 
O=C(NCC[C@H](O)c1cccs1)c1cnn2c1CNCC2

>  <tags>  (83) 
{'openbind_xx01zvns2b_c1_knitwork_pure', 'fragmenstein_placed'}

>  <HIPPO Pose ID>  (83) 
34441

>  <ref_pdb>  (83) 
71

>  <smiles>  (83) 
C50276-P17

>  <fragmenstein_runtime>  (83) 
3.754409

>  <fragmenstein_outcome>  (83) 
acceptable

>  <fragmenstein_mode>  (83) 
expansion

>  <fragmenstein_error>  (83) 


>  <HIPPO Compound ID>  (83) 
1967

>  <Energy>  (83) 
6.89559

>  <scratch_subdir>  (83) 
/opt/xchem-fragalysis-2/maxwin/BulkDock/SCRATCH/511030/C50276-P17

$$$$
c1cnn(C2CCNCC2)c1
     RDKit          3D

 11 12  0  0  0  0  0  0  0  0999 V2000
   -8.7607    4.4998  -15.9647 C   0  0  0  0  0  0  0  0  0  0  0  0
   -9.1956    4.4541  -17.2999 C   0  0  0  0  0  0  0  0  0  0  0  0
   -8.2778    4.9341  -18.1392 N   0  0  0  0  0  0  0  0  0  0  0  0
   -7.2637    5.3028  -17.3407 N   0  0  0  0  0  0  0  0  0  0  0  0
   -6.0226    5.8127  -17.9045 C   0  0  0  0  0  0  0  0  0  0  0  0
   -5.2893    4.7140  -18.6639 C   0  0  0  0  0  0  0  0  0  0  0  0
   -3.9879    5.2309  -19.2497 C   0  0  0  0  0  0  0  0  0  0  0  0
   -4.2107    6.3768  -20.1297 N   0  0  0  0  0  0  0  0  0  0  0  0
   -4.8572    7.4698  -19.3979 C   0  0  0  0  0  0  0  0  0  0  0  0
   -6.1892    7.0592  -18.7739 C   0  0  0  0  0  0  0  0  0  0  0  0
   -7.5090    5.0619  -16.0176 C   0  0  0  0  0  0  0  0  0  0  0  0
  1  2  1  0
  2  3  2  0
  3  4  1  0
  4  5  1  0
  5  6  1  0
  6  7  1  0
  7  8  1  0
  8  9  1  0
  9 10  1  0
  4 11  1  0
 11  1  2  0
 10  5  1  0
M  END
>  <inchikey>  (84) 
OVFDKXRJXJSPMV-UHFFFAOYSA-N

>  <alias>  (84) 
c1cnn(C2CCNCC2)c1

>  <tags>  (84) 
{'openbind_xx01zvns2b_c1_knitwork_pure', 'fragmenstein_placed'}

>  <HIPPO Pose ID>  (84) 
34544

>  <ref_pdb>  (84) 
71

>  <smiles>  (84) 
C13794-P47

>  <fragmenstein_runtime>  (84) 
1.036603

>  <fragmenstein_outcome>  (84) 
acceptable

>  <fragmenstein_mode>  (84) 
expansion

>  <fragmenstein_error>  (84) 


>  <HIPPO Compound ID>  (84) 
3502

>  <Energy>  (84) 
-6.371039

>  <scratch_subdir>  (84) 
/opt/xchem-fragalysis-2/maxwin/BulkDock/SCRATCH/511030/C13794-P47

$$$$
c1n[nH]cc1C1CCNCC1
     RDKit          3D

 11 12  0  0  0  0  0  0  0  0999 V2000
   -8.3403    4.4365  -18.5323 C   0  0  0  0  0  0  0  0  0  0  0  0
   -9.4560    3.9785  -17.9614 N   0  0  0  0  0  0  0  0  0  0  0  0
   -9.3801    4.4422  -16.7078 N   0  0  0  0  0  0  0  0  0  0  0  0
   -8.2115    5.0948  -16.4380 C   0  0  0  0  0  0  0  0  0  0  0  0
   -7.5113    5.1463  -17.6285 C   0  0  0  0  0  0  0  0  0  0  0  0
   -6.1669    5.7604  -17.8824 C   0  0  0  0  0  0  0  0  0  0  0  0
   -5.1793    4.7410  -18.4472 C   0  0  0  0  0  0  0  0  0  0  0  0
   -3.8034    5.3532  -18.6683 C   0  0  0  0  0  0  0  0  0  0  0  0
   -3.8484    6.5388  -19.5198 N   0  0  0  0  0  0  0  0  0  0  0  0
   -4.7803    7.5399  -18.9998 C   0  0  0  0  0  0  0  0  0  0  0  0
   -6.1908    6.9850  -18.7976 C   0  0  0  0  0  0  0  0  0  0  0  0
  1  2  2  0
  2  3  1  0
  3  4  1  0
  4  5  2  0
  5  6  1  0
  6  7  1  0
  7  8  1  0
  8  9  1  0
  9 10  1  0
 10 11  1  0
  5  1  1  0
 11  6  1  0
M  END
>  <inchikey>  (85) 
QFYSXTTWDGHOIV-UHFFFAOYSA-N

>  <alias>  (85) 
c1n[nH]cc1C1CCNCC1

>  <tags>  (85) 
{'openbind_xx01zvns2b_c1_knitwork_pure', 'fragmenstein_placed'}

>  <HIPPO Pose ID>  (85) 
34594

>  <ref_pdb>  (85) 
71

>  <smiles>  (85) 
C13793-P47

>  <fragmenstein_runtime>  (85) 
1.598997

>  <fragmenstein_outcome>  (85) 
acceptable

>  <fragmenstein_mode>  (85) 
expansion

>  <fragmenstein_error>  (85) 


>  <HIPPO Compound ID>  (85) 
6950

>  <Energy>  (85) 
1.374992

>  <scratch_subdir>  (85) 
/opt/xchem-fragalysis-2/maxwin/BulkDock/SCRATCH/511030/C13793-P47

$$$$
CN(C)CCn1c(=O)[nH]c2ccc(C(=O)NCC3CCNCC3)cc21
     RDKit          3D

 25 27  0  0  0  0  0  0  0  0999 V2000
   -5.7807    7.7547  -19.2814 C   0  0  0  0  0  0  0  0  0  0  0  0
   -4.3435    7.5707  -19.1745 N   0  0  0  0  0  0  0  0  0  0  0  0
   -3.8467    8.0137  -17.8764 C   0  0  0  0  0  0  0  0  0  0  0  0
   -3.9406    6.1946  -19.5118 C   0  0  0  0  0  0  0  0  0  0  0  0
   -4.3415    5.0546  -18.5562 C   0  0  0  0  0  0  0  0  0  0  0  0
   -5.7419    4.6999  -18.5665 N   0  0  0  0  0  0  0  0  0  0  0  0
   -6.4376    4.1559  -19.6727 C   0  0  0  0  0  0  0  0  0  0  0  0
   -6.0127    3.9681  -20.8038 O   0  0  0  0  0  0  0  0  0  0  0  0
   -7.7177    3.8113  -19.2063 N   0  0  0  0  0  0  0  0  0  0  0  0
   -7.8000    4.1004  -17.8506 C   0  0  0  0  0  0  0  0  0  0  0  0
   -8.8539    3.9152  -16.9854 C   0  0  0  0  0  0  0  0  0  0  0  0
   -8.6560    4.2826  -15.6463 C   0  0  0  0  0  0  0  0  0  0  0  0
   -7.4277    4.8358  -15.2220 C   0  0  0  0  0  0  0  0  0  0  0  0
   -7.2647    5.4358  -13.8640 C   0  0  0  0  0  0  0  0  0  0  0  0
   -6.7707    6.4925  -13.8312 O   0  0  0  0  0  0  0  0  0  0  0  0
   -7.8281    4.5602  -12.7266 N   0  0  0  0  0  0  0  0  0  0  0  0
   -7.9892    4.8406  -11.3183 C   0  0  0  0  0  0  0  0  0  0  0  0
   -7.6821    3.6756  -10.3663 C   0  0  0  0  0  0  0  0  0  0  0  0
   -8.8674    2.7145  -10.2283 C   0  0  0  0  0  0  0  0  0  0  0  0
   -8.8120    1.9105   -8.9311 C   0  0  0  0  0  0  0  0  0  0  0  0
   -8.8219    2.7319   -7.7108 N   0  0  0  0  0  0  0  0  0  0  0  0
   -8.3594    4.0970   -7.9285 C   0  0  0  0  0  0  0  0  0  0  0  0
   -7.2628    4.2145   -8.9808 C   0  0  0  0  0  0  0  0  0  0  0  0
   -6.3713    5.0150  -16.1328 C   0  0  0  0  0  0  0  0  0  0  0  0
   -6.5808    4.6357  -17.4408 C   0  0  0  0  0  0  0  0  0  0  0  0
  1  2  1  0
  2  3  1  0
  2  4  1  0
  4  5  1  0
  5  6  1  0
  6  7  1  0
  7  8  2  0
  7  9  1  0
  9 10  1  0
 10 11  2  0
 11 12  1  0
 12 13  2  0
 13 14  1  0
 14 15  2  0
 14 16  1  0
 16 17  1  0
 17 18  1  0
 18 19  1  0
 19 20  1  0
 20 21  1  0
 21 22  1  0
 22 23  1  0
 13 24  1  0
 24 25  2  0
 25  6  1  0
 25 10  1  0
 23 18  1  0
M  END
>  <inchikey>  (86) 
WNYAEKSUHJTMDA-UHFFFAOYSA-N

>  <alias>  (86) 
CN(C)CCn1c(=O)[nH]c2ccc(C(=O)NCC3CCNCC3)cc21

>  <tags>  (86) 
{'openbind_xx01zvns2b_c1_knitwork_pure', 'fragmenstein_placed'}

>  <HIPPO Pose ID>  (86) 
34632

>  <ref_pdb>  (86) 
71

>  <smiles>  (86) 
C16262-P268

>  <fragmenstein_runtime>  (86) 
4.912266

>  <fragmenstein_outcome>  (86) 
acceptable

>  <fragmenstein_mode>  (86) 
expansion

>  <fragmenstein_error>  (86) 


>  <HIPPO Compound ID>  (86) 
9576

>  <Energy>  (86) 
20.255744

>  <scratch_subdir>  (86) 
/opt/xchem-fragalysis-2/maxwin/BulkDock/SCRATCH/511030/C16262-P268

$$$$
CN(C)CCn1c(=O)[nH]c2ccc(C(=O)NC3CCNCC3)cc21
     RDKit          3D

 24 26  0  0  0  0  0  0  0  0999 V2000
   -3.8805    8.0371  -17.8511 C   0  0  0  0  0  0  0  0  0  0  0  0
   -4.3367    7.6019  -19.1665 N   0  0  0  0  0  0  0  0  0  0  0  0
   -5.7722    7.7708  -19.3127 C   0  0  0  0  0  0  0  0  0  0  0  0
   -3.9041    6.2370  -19.5099 C   0  0  0  0  0  0  0  0  0  0  0  0
   -4.3318    5.0782  -18.5901 C   0  0  0  0  0  0  0  0  0  0  0  0
   -5.7245    4.7060  -18.6732 N   0  0  0  0  0  0  0  0  0  0  0  0
   -6.3517    4.1576  -19.8177 C   0  0  0  0  0  0  0  0  0  0  0  0
   -5.8736    3.9973  -20.9311 O   0  0  0  0  0  0  0  0  0  0  0  0
   -7.6366    3.7625  -19.4181 N   0  0  0  0  0  0  0  0  0  0  0  0
   -7.7996    4.0496  -18.0727 C   0  0  0  0  0  0  0  0  0  0  0  0
   -8.8971    3.8195  -17.2809 C   0  0  0  0  0  0  0  0  0  0  0  0
   -8.7800    4.1796  -15.9389 C   0  0  0  0  0  0  0  0  0  0  0  0
   -7.5947    4.7750  -15.4466 C   0  0  0  0  0  0  0  0  0  0  0  0
   -7.5794    5.2879  -14.0538 C   0  0  0  0  0  0  0  0  0  0  0  0
   -7.3620    6.4186  -13.8784 O   0  0  0  0  0  0  0  0  0  0  0  0
   -7.9691    4.1819  -13.0597 N   0  0  0  0  0  0  0  0  0  0  0  0
   -8.2689    4.2516  -11.6431 C   0  0  0  0  0  0  0  0  0  0  0  0
   -8.2072    2.8766  -10.9816 C   0  0  0  0  0  0  0  0  0  0  0  0
   -8.5584    2.9644   -9.4992 C   0  0  0  0  0  0  0  0  0  0  0  0
   -7.7598    3.9739   -8.8058 N   0  0  0  0  0  0  0  0  0  0  0  0
   -7.8542    5.2931   -9.4103 C   0  0  0  0  0  0  0  0  0  0  0  0
   -7.4249    5.2614  -10.8745 C   0  0  0  0  0  0  0  0  0  0  0  0
   -6.4924    5.0083  -16.2763 C   0  0  0  0  0  0  0  0  0  0  0  0
   -6.6194    4.6230  -17.5932 C   0  0  0  0  0  0  0  0  0  0  0  0
  1  2  1  0
  2  3  1  0
  2  4  1  0
  4  5  1  0
  5  6  1  0
  6  7  1  0
  7  8  2  0
  7  9  1  0
  9 10  1  0
 10 11  2  0
 11 12  1  0
 12 13  2  0
 13 14  1  0
 14 15  2  0
 14 16  1  0
 16 17  1  0
 17 18  1  0
 18 19  1  0
 19 20  1  0
 20 21  1  0
 21 22  1  0
 13 23  1  0
 23 24  2  0
 24  6  1  0
 24 10  1  0
 22 17  1  0
M  END
>  <inchikey>  (87) 
DBJCYMKKDNSPEW-UHFFFAOYSA-N

>  <alias>  (87) 
CN(C)CCn1c(=O)[nH]c2ccc(C(=O)NC3CCNCC3)cc21

>  <tags>  (87) 
{'openbind_xx01zvns2b_c1_knitwork_pure', 'fragmenstein_placed'}

>  <HIPPO Pose ID>  (87) 
34633

>  <ref_pdb>  (87) 
71

>  <smiles>  (87) 
C16263-P268

>  <fragmenstein_runtime>  (87) 
4.344743

>  <fragmenstein_outcome>  (87) 
acceptable

>  <fragmenstein_mode>  (87) 
expansion

>  <fragmenstein_error>  (87) 


>  <HIPPO Compound ID>  (87) 
48850

>  <Energy>  (87) 
9.198338

>  <scratch_subdir>  (87) 
/opt/xchem-fragalysis-2/maxwin/BulkDock/SCRATCH/511030/C16263-P268

$$$$
COc1cccc2c1[nH]c(=O)n2C1CCNCC1
     RDKit          3D

 18 20  0  0  0  0  0  0  0  0999 V2000
  -10.7407    4.4551  -18.1085 C   0  0  0  0  0  0  0  0  0  0  0  0
   -9.9486    3.3796  -17.6145 O   0  0  0  0  0  0  0  0  0  0  0  0
   -8.8182    3.8806  -17.0577 C   0  0  0  0  0  0  0  0  0  0  0  0
   -8.7453    4.1546  -15.6941 C   0  0  0  0  0  0  0  0  0  0  0  0
   -7.5898    4.7318  -15.1431 C   0  0  0  0  0  0  0  0  0  0  0  0
   -6.4934    5.0399  -15.9544 C   0  0  0  0  0  0  0  0  0  0  0  0
   -6.5761    4.7179  -17.2970 C   0  0  0  0  0  0  0  0  0  0  0  0
   -7.7114    4.1265  -17.8238 C   0  0  0  0  0  0  0  0  0  0  0  0
   -7.5127    3.8917  -19.1734 N   0  0  0  0  0  0  0  0  0  0  0  0
   -6.2500    4.3674  -19.5352 C   0  0  0  0  0  0  0  0  0  0  0  0
   -5.7943    4.3102  -20.6663 O   0  0  0  0  0  0  0  0  0  0  0  0
   -5.6577    4.8896  -18.3524 N   0  0  0  0  0  0  0  0  0  0  0  0
   -4.4933    5.7577  -18.2290 C   0  0  0  0  0  0  0  0  0  0  0  0
   -4.8183    7.1822  -18.6958 C   0  0  0  0  0  0  0  0  0  0  0  0
   -4.6046    7.3657  -20.1868 C   0  0  0  0  0  0  0  0  0  0  0  0
   -3.2472    6.9794  -20.5588 N   0  0  0  0  0  0  0  0  0  0  0  0
   -3.0127    5.5565  -20.3038 C   0  0  0  0  0  0  0  0  0  0  0  0
   -3.2052    5.2052  -18.8409 C   0  0  0  0  0  0  0  0  0  0  0  0
  1  2  1  0
  2  3  1  0
  3  4  2  0
  4  5  1  0
  5  6  2  0
  6  7  1  0
  7  8  2  0
  8  9  1  0
  9 10  1  0
 10 11  2  0
 10 12  1  0
 12 13  1  0
 13 14  1  0
 14 15  1  0
 15 16  1  0
 16 17  1  0
 17 18  1  0
  8  3  1  0
 18 13  1  0
 12  7  1  0
M  END
>  <inchikey>  (88) 
VTLIUSHGRJAXSK-UHFFFAOYSA-N

>  <alias>  (88) 
COc1cccc2c1[nH]c(=O)n2C1CCNCC1

>  <tags>  (88) 
{'openbind_xx01zvns2b_c1_knitwork_pure', 'fragmenstein_placed'}

>  <HIPPO Pose ID>  (88) 
34635

>  <ref_pdb>  (88) 
71

>  <smiles>  (88) 
C16265-P268

>  <fragmenstein_runtime>  (88) 
2.28044

>  <fragmenstein_outcome>  (88) 
acceptable

>  <fragmenstein_mode>  (88) 
expansion

>  <fragmenstein_error>  (88) 


>  <HIPPO Compound ID>  (88) 
4305

>  <Energy>  (88) 
-4.462774

>  <scratch_subdir>  (88) 
/opt/xchem-fragalysis-2/maxwin/BulkDock/SCRATCH/511030/C16265-P268

$$$$
O=c1[nH]c2ccc(F)c(F)c2n1C1CCNCC1
     RDKit          3D

 18 20  0  0  0  0  0  0  0  0999 V2000
   -6.0029    4.1033  -20.7963 O   0  0  0  0  0  0  0  0  0  0  0  0
   -6.4833    4.1951  -19.6767 C   0  0  0  0  0  0  0  0  0  0  0  0
   -7.7278    3.6797  -19.2891 N   0  0  0  0  0  0  0  0  0  0  0  0
   -7.9360    3.9672  -17.9507 C   0  0  0  0  0  0  0  0  0  0  0  0
   -9.0325    3.6831  -17.1793 C   0  0  0  0  0  0  0  0  0  0  0  0
   -8.9549    4.0263  -15.8278 C   0  0  0  0  0  0  0  0  0  0  0  0
   -7.8221    4.6623  -15.3039 C   0  0  0  0  0  0  0  0  0  0  0  0
   -7.7906    4.9677  -13.9982 F   0  0  0  0  0  0  0  0  0  0  0  0
   -6.7508    4.9937  -16.1222 C   0  0  0  0  0  0  0  0  0  0  0  0
   -5.6929    5.6342  -15.6078 F   0  0  0  0  0  0  0  0  0  0  0  0
   -6.8210    4.6347  -17.4532 C   0  0  0  0  0  0  0  0  0  0  0  0
   -5.9281    4.8116  -18.5251 N   0  0  0  0  0  0  0  0  0  0  0  0
   -4.8448    5.7736  -18.5089 C   0  0  0  0  0  0  0  0  0  0  0  0
   -3.5049    5.2087  -18.9851 C   0  0  0  0  0  0  0  0  0  0  0  0
   -3.1810    5.6663  -20.3915 C   0  0  0  0  0  0  0  0  0  0  0  0
   -3.1105    7.1266  -20.5001 N   0  0  0  0  0  0  0  0  0  0  0  0
   -4.0277    7.8533  -19.6277 C   0  0  0  0  0  0  0  0  0  0  0  0
   -5.2589    7.0503  -19.2555 C   0  0  0  0  0  0  0  0  0  0  0  0
  1  2  2  0
  2  3  1  0
  3  4  1  0
  4  5  2  0
  5  6  1  0
  6  7  2  0
  7  8  1  0
  7  9  1  0
  9 10  1  0
  9 11  2  0
 11 12  1  0
 12 13  1  0
 13 14  1  0
 14 15  1  0
 15 16  1  0
 16 17  1  0
 17 18  1  0
 12  2  1  0
 18 13  1  0
 11  4  1  0
M  END
>  <inchikey>  (89) 
ZHIVUAXWJHYVJQ-UHFFFAOYSA-N

>  <alias>  (89) 
O=c1[nH]c2ccc(F)c(F)c2n1C1CCNCC1

>  <tags>  (89) 
{'openbind_xx01zvns2b_c1_knitwork_pure', 'fragmenstein_placed'}

>  <HIPPO Pose ID>  (89) 
34642

>  <ref_pdb>  (89) 
71

>  <smiles>  (89) 
C16273-P268

>  <fragmenstein_runtime>  (89) 
1.252171

>  <fragmenstein_outcome>  (89) 
acceptable

>  <fragmenstein_mode>  (89) 
expansion

>  <fragmenstein_error>  (89) 


>  <HIPPO Compound ID>  (89) 
47653

>  <Energy>  (89) 
-6.38915

>  <scratch_subdir>  (89) 
/opt/xchem-fragalysis-2/maxwin/BulkDock/SCRATCH/511030/C16273-P268

$$$$
CC(C)n1c(=O)[nH]c2ccc(C(=O)NC3CCNCC3)cc21
     RDKit          3D

 22 24  0  0  0  0  0  0  0  0999 V2000
   -3.3479    4.9128  -18.2162 C   0  0  0  0  0  0  0  0  0  0  0  0
   -4.5593    5.6980  -18.7032 C   0  0  0  0  0  0  0  0  0  0  0  0
   -4.2401    6.3760  -20.0350 C   0  0  0  0  0  0  0  0  0  0  0  0
   -5.7811    4.9107  -18.7384 N   0  0  0  0  0  0  0  0  0  0  0  0
   -6.3293    4.2145  -19.8471 C   0  0  0  0  0  0  0  0  0  0  0  0
   -5.8571    4.0593  -20.9640 O   0  0  0  0  0  0  0  0  0  0  0  0
   -7.5576    3.6856  -19.4205 N   0  0  0  0  0  0  0  0  0  0  0  0
   -7.7553    4.0158  -18.0911 C   0  0  0  0  0  0  0  0  0  0  0  0
   -8.8275    3.7070  -17.2913 C   0  0  0  0  0  0  0  0  0  0  0  0
   -8.7519    4.1202  -15.9621 C   0  0  0  0  0  0  0  0  0  0  0  0
   -7.6274    4.8369  -15.4880 C   0  0  0  0  0  0  0  0  0  0  0  0
   -7.6454    5.3536  -14.0947 C   0  0  0  0  0  0  0  0  0  0  0  0
   -7.5095    6.4975  -13.9227 O   0  0  0  0  0  0  0  0  0  0  0  0
   -7.9531    4.2249  -13.0965 N   0  0  0  0  0  0  0  0  0  0  0  0
   -8.2549    4.2770  -11.6794 C   0  0  0  0  0  0  0  0  0  0  0  0
   -8.1930    2.8957  -11.0304 C   0  0  0  0  0  0  0  0  0  0  0  0
   -8.5421    2.9700   -9.5465 C   0  0  0  0  0  0  0  0  0  0  0  0
   -7.7394    3.9715   -8.8461 N   0  0  0  0  0  0  0  0  0  0  0  0
   -7.8381    5.2969   -9.4369 C   0  0  0  0  0  0  0  0  0  0  0  0
   -7.4101    5.2795  -10.9019 C   0  0  0  0  0  0  0  0  0  0  0  0
   -6.5634    5.1728  -16.3355 C   0  0  0  0  0  0  0  0  0  0  0  0
   -6.6520    4.7430  -17.6431 C   0  0  0  0  0  0  0  0  0  0  0  0
  1  2  1  0
  2  3  1  0
  2  4  1  0
  4  5  1  0
  5  6  2  0
  5  7  1  0
  7  8  1  0
  8  9  2  0
  9 10  1  0
 10 11  2  0
 11 12  1  0
 12 13  2  0
 12 14  1  0
 14 15  1  0
 15 16  1  0
 16 17  1  0
 17 18  1  0
 18 19  1  0
 19 20  1  0
 11 21  1  0
 21 22  2  0
 22  4  1  0
 22  8  1  0
 20 15  1  0
M  END
>  <inchikey>  (90) 
VFTFXPGYXZKTSP-UHFFFAOYSA-N

>  <alias>  (90) 
CC(C)n1c(=O)[nH]c2ccc(C(=O)NC3CCNCC3)cc21

>  <tags>  (90) 
{'openbind_xx01zvns2b_c1_knitwork_pure', 'fragmenstein_placed'}

>  <HIPPO Pose ID>  (90) 
34663

>  <ref_pdb>  (90) 
71

>  <smiles>  (90) 
C16302-P268

>  <fragmenstein_runtime>  (90) 
5.222425

>  <fragmenstein_outcome>  (90) 
acceptable

>  <fragmenstein_mode>  (90) 
expansion

>  <fragmenstein_error>  (90) 


>  <HIPPO Compound ID>  (90) 
6745

>  <Energy>  (90) 
-11.588686

>  <scratch_subdir>  (90) 
/opt/xchem-fragalysis-2/maxwin/BulkDock/SCRATCH/511030/C16302-P268

$$$$
O=C(NCC1CCNCC1)c1ccc2[nH]c(=O)n(CC(F)(F)F)c2c1
     RDKit          3D

 25 27  0  0  0  0  0  0  0  0999 V2000
   -6.7366    6.4979  -13.9026 O   0  0  0  0  0  0  0  0  0  0  0  0
   -7.2423    5.4463  -13.9309 C   0  0  0  0  0  0  0  0  0  0  0  0
   -7.8052    4.5756  -12.7871 N   0  0  0  0  0  0  0  0  0  0  0  0
   -7.9505    4.8580  -11.3761 C   0  0  0  0  0  0  0  0  0  0  0  0
   -7.6529    3.6886  -10.4240 C   0  0  0  0  0  0  0  0  0  0  0  0
   -8.8458    2.7367  -10.2827 C   0  0  0  0  0  0  0  0  0  0  0  0
   -8.8015    1.9405   -8.9793 C   0  0  0  0  0  0  0  0  0  0  0  0
   -8.8085    2.7693   -7.7638 N   0  0  0  0  0  0  0  0  0  0  0  0
   -8.3295    4.1276   -7.9890 C   0  0  0  0  0  0  0  0  0  0  0  0
   -7.2270    4.2220   -9.0378 C   0  0  0  0  0  0  0  0  0  0  0  0
   -7.4320    4.8532  -15.2911 C   0  0  0  0  0  0  0  0  0  0  0  0
   -8.6616    4.2769  -15.6813 C   0  0  0  0  0  0  0  0  0  0  0  0
   -8.8840    3.8864  -17.0094 C   0  0  0  0  0  0  0  0  0  0  0  0
   -7.8510    4.0663  -17.8990 C   0  0  0  0  0  0  0  0  0  0  0  0
   -7.7915    3.7392  -19.2483 N   0  0  0  0  0  0  0  0  0  0  0  0
   -6.5325    4.0983  -19.7497 C   0  0  0  0  0  0  0  0  0  0  0  0
   -6.1176    3.9040  -20.8823 O   0  0  0  0  0  0  0  0  0  0  0  0
   -5.8221    4.6691  -18.6723 N   0  0  0  0  0  0  0  0  0  0  0  0
   -4.4680    5.1635  -18.7636 C   0  0  0  0  0  0  0  0  0  0  0  0
   -4.3230    6.4914  -19.4932 C   0  0  0  0  0  0  0  0  0  0  0  0
   -3.0283    6.8973  -19.4661 F   0  0  0  0  0  0  0  0  0  0  0  0
   -5.0459    7.4696  -18.8988 F   0  0  0  0  0  0  0  0  0  0  0  0
   -4.6903    6.4352  -20.7888 F   0  0  0  0  0  0  0  0  0  0  0  0
   -6.6339    4.6371  -17.5287 C   0  0  0  0  0  0  0  0  0  0  0  0
   -6.4023    5.0472  -16.2332 C   0  0  0  0  0  0  0  0  0  0  0  0
  1  2  2  0
  2  3  1  0
  3  4  1  0
  4  5  1  0
  5  6  1  0
  6  7  1  0
  7  8  1  0
  8  9  1  0
  9 10  1  0
  2 11  1  0
 11 12  2  0
 12 13  1  0
 13 14  2  0
 14 15  1  0
 15 16  1  0
 16 17  2  0
 16 18  1  0
 18 19  1  0
 19 20  1  0
 20 21  1  0
 20 22  1  0
 20 23  1  0
 18 24  1  0
 24 25  2  0
 10  5  1  0
 25 11  1  0
 24 14  1  0
M  END
>  <inchikey>  (91) 
ORPRRXFXNZGNIC-UHFFFAOYSA-N

>  <alias>  (91) 
O=C(NCC1CCNCC1)c1ccc2[nH]c(=O)n(CC(F)(F)F)c2c1

>  <tags>  (91) 
{'openbind_xx01zvns2b_c1_knitwork_pure', 'fragmenstein_placed'}

>  <HIPPO Pose ID>  (91) 
34665

>  <ref_pdb>  (91) 
71

>  <smiles>  (91) 
C16304-P268

>  <fragmenstein_runtime>  (91) 
3.992843

>  <fragmenstein_outcome>  (91) 
acceptable

>  <fragmenstein_mode>  (91) 
expansion

>  <fragmenstein_error>  (91) 


>  <HIPPO Compound ID>  (91) 
1649

>  <Energy>  (91) 
21.625968

>  <scratch_subdir>  (91) 
/opt/xchem-fragalysis-2/maxwin/BulkDock/SCRATCH/511030/C16304-P268

$$$$
CCn1c(=O)[nH]c2ccc(C(=O)NCC3CCNCC3)cc21
     RDKit          3D

 22 24  0  0  0  0  0  0  0  0999 V2000
   -4.4265    6.5500  -19.3427 C   0  0  0  0  0  0  0  0  0  0  0  0
   -4.4802    5.1503  -18.7603 C   0  0  0  0  0  0  0  0  0  0  0  0
   -5.8271    4.6540  -18.6775 N   0  0  0  0  0  0  0  0  0  0  0  0
   -6.5426    4.0853  -19.7558 C   0  0  0  0  0  0  0  0  0  0  0  0
   -6.1445    3.8974  -20.8970 O   0  0  0  0  0  0  0  0  0  0  0  0
   -7.8018    3.7262  -19.2492 N   0  0  0  0  0  0  0  0  0  0  0  0
   -7.8576    4.0557  -17.9008 C   0  0  0  0  0  0  0  0  0  0  0  0
   -8.8898    3.8817  -17.0092 C   0  0  0  0  0  0  0  0  0  0  0  0
   -8.6648    4.2765  -15.6829 C   0  0  0  0  0  0  0  0  0  0  0  0
   -7.4334    4.8520  -15.2965 C   0  0  0  0  0  0  0  0  0  0  0  0
   -7.2455    5.4513  -13.9392 C   0  0  0  0  0  0  0  0  0  0  0  0
   -6.7528    6.5092  -13.9138 O   0  0  0  0  0  0  0  0  0  0  0  0
   -7.7962    4.5761  -12.7926 N   0  0  0  0  0  0  0  0  0  0  0  0
   -7.9429    4.8596  -11.3820 C   0  0  0  0  0  0  0  0  0  0  0  0
   -7.6483    3.6906  -10.4284 C   0  0  0  0  0  0  0  0  0  0  0  0
   -8.8425    2.7401  -10.2878 C   0  0  0  0  0  0  0  0  0  0  0  0
   -8.8002    1.9440   -8.9842 C   0  0  0  0  0  0  0  0  0  0  0  0
   -8.8061    2.7725   -7.7685 N   0  0  0  0  0  0  0  0  0  0  0  0
   -8.3273    4.1309   -7.9943 C   0  0  0  0  0  0  0  0  0  0  0  0
   -7.2237    4.2244   -9.0419 C   0  0  0  0  0  0  0  0  0  0  0  0
   -6.4048    5.0398  -16.2399 C   0  0  0  0  0  0  0  0  0  0  0  0
   -6.6393    4.6246  -17.5335 C   0  0  0  0  0  0  0  0  0  0  0  0
  1  2  1  0
  2  3  1  0
  3  4  1  0
  4  5  2  0
  4  6  1  0
  6  7  1  0
  7  8  2  0
  8  9  1  0
  9 10  2  0
 10 11  1  0
 11 12  2  0
 11 13  1  0
 13 14  1  0
 14 15  1  0
 15 16  1  0
 16 17  1  0
 17 18  1  0
 18 19  1  0
 19 20  1  0
 10 21  1  0
 21 22  2  0
 22  3  1  0
 22  7  1  0
 20 15  1  0
M  END
>  <inchikey>  (92) 
PJHBFYDTPXBHEY-UHFFFAOYSA-N

>  <alias>  (92) 
CCn1c(=O)[nH]c2ccc(C(=O)NCC3CCNCC3)cc21

>  <tags>  (92) 
{'openbind_xx01zvns2b_c1_knitwork_pure', 'fragmenstein_placed'}

>  <HIPPO Pose ID>  (92) 
34667

>  <ref_pdb>  (92) 
71

>  <smiles>  (92) 
C16307-P268

>  <fragmenstein_runtime>  (92) 
4.069955

>  <fragmenstein_outcome>  (92) 
acceptable

>  <fragmenstein_mode>  (92) 
expansion

>  <fragmenstein_error>  (92) 


>  <HIPPO Compound ID>  (92) 
50700

>  <Energy>  (92) 
-6.438082

>  <scratch_subdir>  (92) 
/opt/xchem-fragalysis-2/maxwin/BulkDock/SCRATCH/511030/C16307-P268

$$$$
O=C(CCn1cc(Cl)cn1)Nc1ccnc2ccccc12
     RDKit          3D

 21 23  0  0  0  0  0  0  0  0999 V2000
   -6.4381    5.8565  -13.8497 O   0  0  0  0  0  0  0  0  0  0  0  0
   -5.3421    5.5537  -14.1267 C   0  0  0  0  0  0  0  0  0  0  0  0
   -4.2011    5.6172  -13.1256 C   0  0  0  0  0  0  0  0  0  0  0  0
   -3.4190    6.9057  -13.3021 C   0  0  0  0  0  0  0  0  0  0  0  0
   -4.1349    8.0662  -12.8035 N   0  0  0  0  0  0  0  0  0  0  0  0
   -4.9800    8.8720  -13.5099 C   0  0  0  0  0  0  0  0  0  0  0  0
   -5.4069    9.8310  -12.6258 C   0  0  0  0  0  0  0  0  0  0  0  0
   -6.4859   11.1020  -12.9026 Cl  0  0  0  0  0  0  0  0  0  0  0  0
   -4.7477    9.5329  -11.4204 C   0  0  0  0  0  0  0  0  0  0  0  0
   -3.9521    8.4622  -11.5286 N   0  0  0  0  0  0  0  0  0  0  0  0
   -4.7468    5.0255  -15.4726 N   0  0  0  0  0  0  0  0  0  0  0  0
   -5.3473    4.8607  -16.7345 C   0  0  0  0  0  0  0  0  0  0  0  0
   -4.4601    4.9348  -17.8120 C   0  0  0  0  0  0  0  0  0  0  0  0
   -4.9626    4.8425  -19.0909 C   0  0  0  0  0  0  0  0  0  0  0  0
   -6.2594    4.6520  -19.3531 N   0  0  0  0  0  0  0  0  0  0  0  0
   -7.1206    4.5209  -18.3354 C   0  0  0  0  0  0  0  0  0  0  0  0
   -8.4484    4.2553  -18.6509 C   0  0  0  0  0  0  0  0  0  0  0  0
   -9.4129    4.0443  -17.6740 C   0  0  0  0  0  0  0  0  0  0  0  0
   -9.0276    4.0605  -16.3480 C   0  0  0  0  0  0  0  0  0  0  0  0
   -7.7044    4.3243  -16.0054 C   0  0  0  0  0  0  0  0  0  0  0  0
   -6.7227    4.6049  -16.9815 C   0  0  0  0  0  0  0  0  0  0  0  0
  1  2  2  0
  2  3  1  0
  3  4  1  0
  4  5  1  0
  5  6  1  0
  6  7  2  0
  7  8  1  0
  7  9  1  0
  9 10  2  0
  2 11  1  0
 11 12  1  0
 12 13  2  0
 13 14  1  0
 14 15  2  0
 15 16  1  0
 16 17  2  0
 17 18  1  0
 18 19  2  0
 19 20  1  0
 20 21  2  0
 10  5  1  0
 21 12  1  0
 21 16  1  0
M  END
>  <inchikey>  (93) 
KASXZJNQBUCDCD-UHFFFAOYSA-N

>  <alias>  (93) 
O=C(CCn1cc(Cl)cn1)Nc1ccnc2ccccc12

>  <tags>  (93) 
{'openbind_xx01zvns2b_c1_knitwork_pure', 'fragmenstein_placed'}

>  <HIPPO Pose ID>  (93) 
34725

>  <ref_pdb>  (93) 
71

>  <smiles>  (93) 
C50343-P65

>  <fragmenstein_runtime>  (93) 
8.250268

>  <fragmenstein_outcome>  (93) 
acceptable

>  <fragmenstein_mode>  (93) 
expansion

>  <fragmenstein_error>  (93) 


>  <HIPPO Compound ID>  (93) 
48209

>  <Energy>  (93) 
37.160114

>  <scratch_subdir>  (93) 
/opt/xchem-fragalysis-2/maxwin/BulkDock/SCRATCH/511030/C50343-P65

$$$$
O=C(O)c1cccc2c1CN(Cc1nc3ccccc3s1)C2
     RDKit          3D

 22 25  0  0  0  0  0  0  0  0999 V2000
   -2.0558    7.5979  -23.5888 O   0  0  0  0  0  0  0  0  0  0  0  0
   -2.1413    7.1088  -22.4788 C   0  0  0  0  0  0  0  0  0  0  0  0
   -3.1272    6.2541  -22.1523 O   0  0  0  0  0  0  0  0  0  0  0  0
   -1.2127    7.3523  -21.3500 C   0  0  0  0  0  0  0  0  0  0  0  0
    0.0227    7.9605  -21.6169 C   0  0  0  0  0  0  0  0  0  0  0  0
    0.9294    8.2327  -20.5776 C   0  0  0  0  0  0  0  0  0  0  0  0
    0.6131    7.9130  -19.2552 C   0  0  0  0  0  0  0  0  0  0  0  0
   -0.6156    7.3296  -18.9984 C   0  0  0  0  0  0  0  0  0  0  0  0
   -1.5147    7.0462  -20.0284 C   0  0  0  0  0  0  0  0  0  0  0  0
   -2.7296    6.4037  -19.4394 C   0  0  0  0  0  0  0  0  0  0  0  0
   -2.6372    6.6573  -17.9862 N   0  0  0  0  0  0  0  0  0  0  0  0
   -3.1885    5.5792  -17.1594 C   0  0  0  0  0  0  0  0  0  0  0  0
   -4.6943    5.4448  -17.1171 C   0  0  0  0  0  0  0  0  0  0  0  0
   -5.3779    5.3975  -15.9910 N   0  0  0  0  0  0  0  0  0  0  0  0
   -6.6685    4.9555  -16.2397 C   0  0  0  0  0  0  0  0  0  0  0  0
   -7.6495    4.6853  -15.2682 C   0  0  0  0  0  0  0  0  0  0  0  0
   -8.9038    4.2207  -15.6696 C   0  0  0  0  0  0  0  0  0  0  0  0
   -9.1936    4.0239  -17.0152 C   0  0  0  0  0  0  0  0  0  0  0  0
   -8.2350    4.2762  -17.9948 C   0  0  0  0  0  0  0  0  0  0  0  0
   -6.9814    4.7496  -17.5830 C   0  0  0  0  0  0  0  0  0  0  0  0
   -5.6193    5.1575  -18.5366 S   0  0  0  0  0  0  0  0  0  0  0  0
   -1.2018    6.8856  -17.6950 C   0  0  0  0  0  0  0  0  0  0  0  0
  1  2  2  0
  2  3  1  0
  2  4  1  0
  4  5  2  0
  5  6  1  0
  6  7  2  0
  7  8  1  0
  8  9  2  0
  9 10  1  0
 10 11  1  0
 11 12  1  0
 12 13  1  0
 13 14  2  0
 14 15  1  0
 15 16  2  0
 16 17  1  0
 17 18  2  0
 18 19  1  0
 19 20  2  0
 20 21  1  0
 11 22  1  0
  9  4  1  0
 21 13  1  0
 22  8  1  0
 20 15  1  0
M  END
>  <inchikey>  (94) 
RZWXIWQSDZYYOP-UHFFFAOYSA-N

>  <alias>  (94) 
O=C(O)c1cccc2c1CN(Cc1nc3ccccc3s1)C2

>  <tags>  (94) 
{'openbind_xx01zvns2b_c1_knitwork_pure', 'fragmenstein_placed'}

>  <HIPPO Pose ID>  (94) 
34745

>  <ref_pdb>  (94) 
71

>  <smiles>  (94) 
C13256-P155

>  <fragmenstein_runtime>  (94) 
3.790031

>  <fragmenstein_outcome>  (94) 
acceptable

>  <fragmenstein_mode>  (94) 
expansion

>  <fragmenstein_error>  (94) 


>  <HIPPO Compound ID>  (94) 
52192

>  <Energy>  (94) 
58.686267

>  <scratch_subdir>  (94) 
/opt/xchem-fragalysis-2/maxwin/BulkDock/SCRATCH/511030/C13256-P155

$$$$
CN1Cc2ccccc2[C@@H]1CNc1nc2ccccc2s1
     RDKit          3D

 21 24  0  0  0  0  0  0  0  0999 V2000
    0.2523    6.5764  -16.8360 C   0  0  0  0  0  0  0  0  0  0  0  0
   -0.9588    7.0540  -17.5130 N   0  0  0  0  0  0  0  0  0  0  0  0
   -0.7005    8.3982  -18.1078 C   0  0  0  0  0  0  0  0  0  0  0  0
   -0.3980    8.1633  -19.5520 C   0  0  0  0  0  0  0  0  0  0  0  0
    0.1002    9.0463  -20.4945 C   0  0  0  0  0  0  0  0  0  0  0  0
    0.2796    8.5850  -21.8001 C   0  0  0  0  0  0  0  0  0  0  0  0
   -0.0426    7.2620  -22.1414 C   0  0  0  0  0  0  0  0  0  0  0  0
   -0.5543    6.3849  -21.1830 C   0  0  0  0  0  0  0  0  0  0  0  0
   -0.7298    6.8530  -19.8916 C   0  0  0  0  0  0  0  0  0  0  0  0
   -1.2789    6.1488  -18.6825 C   0  0  2  0  0  0  0  0  0  0  0  0
   -2.8117    5.9727  -18.8030 C   0  0  0  0  0  0  0  0  0  0  0  0
   -3.3956    5.5410  -17.5385 N   0  0  0  0  0  0  0  0  0  0  0  0
   -4.7296    5.3527  -17.4051 C   0  0  0  0  0  0  0  0  0  0  0  0
   -5.3077    5.3049  -16.2291 N   0  0  0  0  0  0  0  0  0  0  0  0
   -6.6281    4.8995  -16.3604 C   0  0  0  0  0  0  0  0  0  0  0  0
   -7.5296    4.6510  -15.3082 C   0  0  0  0  0  0  0  0  0  0  0  0
   -8.8309    4.2347  -15.6009 C   0  0  0  0  0  0  0  0  0  0  0  0
   -9.2433    4.0620  -16.9179 C   0  0  0  0  0  0  0  0  0  0  0  0
   -8.3652    4.2873  -17.9758 C   0  0  0  0  0  0  0  0  0  0  0  0
   -7.0672    4.7179  -17.6706 C   0  0  0  0  0  0  0  0  0  0  0  0
   -5.7920    5.1127  -18.7372 S   0  0  0  0  0  0  0  0  0  0  0  0
  1  2  1  0
  2  3  1  0
  3  4  1  0
  4  5  2  0
  5  6  1  0
  6  7  2  0
  7  8  1  0
  8  9  2  0
  9 10  1  0
 10 11  1  6
 11 12  1  0
 12 13  1  0
 13 14  2  0
 14 15  1  0
 15 16  2  0
 16 17  1  0
 17 18  2  0
 18 19  1  0
 19 20  2  0
 20 21  1  0
 10  2  1  0
 21 13  1  0
  9  4  1  0
 20 15  1  0
M  END
>  <inchikey>  (95) 
CZZXKNLVYNUARQ-UHFFFAOYSA-N

>  <alias>  (95) 
CN1Cc2ccccc2[C@@H]1CNc1nc2ccccc2s1

>  <tags>  (95) 
{'openbind_xx01zvns2b_c1_knitwork_pure', 'fragmenstein_placed'}

>  <HIPPO Pose ID>  (95) 
34752

>  <ref_pdb>  (95) 
71

>  <smiles>  (95) 
C13276-P155

>  <fragmenstein_runtime>  (95) 
2.855815

>  <fragmenstein_outcome>  (95) 
acceptable

>  <fragmenstein_mode>  (95) 
expansion

>  <fragmenstein_error>  (95) 


>  <HIPPO Compound ID>  (95) 
11345

>  <Energy>  (95) 
49.806372

>  <scratch_subdir>  (95) 
/opt/xchem-fragalysis-2/maxwin/BulkDock/SCRATCH/511030/C13276-P155

$$$$
CCOC(=O)c1ccc2[nH]c(NC(C)C)nc2c1
     RDKit          3D

 18 19  0  0  0  0  0  0  0  0999 V2000
   -8.2995    4.9426  -10.5629 C   0  0  0  0  0  0  0  0  0  0  0  0
   -8.4220    3.7254  -11.4654 C   0  0  0  0  0  0  0  0  0  0  0  0
   -8.4604    4.1002  -12.8535 O   0  0  0  0  0  0  0  0  0  0  0  0
   -7.2513    4.4171  -13.3710 C   0  0  0  0  0  0  0  0  0  0  0  0
   -6.2176    4.5516  -12.7301 O   0  0  0  0  0  0  0  0  0  0  0  0
   -7.3081    4.5997  -14.8443 C   0  0  0  0  0  0  0  0  0  0  0  0
   -8.4116    4.2756  -15.6537 C   0  0  0  0  0  0  0  0  0  0  0  0
   -8.3440    4.3651  -17.0619 C   0  0  0  0  0  0  0  0  0  0  0  0
   -7.1210    4.7824  -17.6046 C   0  0  0  0  0  0  0  0  0  0  0  0
   -6.6373    4.9523  -18.8849 N   0  0  0  0  0  0  0  0  0  0  0  0
   -5.3111    5.3264  -18.7984 C   0  0  0  0  0  0  0  0  0  0  0  0
   -4.5390    5.4806  -19.8946 N   0  0  0  0  0  0  0  0  0  0  0  0
   -3.0977    5.7384  -19.7827 C   0  0  0  0  0  0  0  0  0  0  0  0
   -2.7779    7.0281  -19.0309 C   0  0  0  0  0  0  0  0  0  0  0  0
   -2.3104    4.5556  -19.2312 C   0  0  0  0  0  0  0  0  0  0  0  0
   -4.9556    5.4943  -17.5544 N   0  0  0  0  0  0  0  0  0  0  0  0
   -6.0359    5.1288  -16.8125 C   0  0  0  0  0  0  0  0  0  0  0  0
   -6.1246    5.0593  -15.4261 C   0  0  0  0  0  0  0  0  0  0  0  0
  1  2  1  0
  2  3  1  0
  3  4  1  0
  4  5  2  0
  4  6  1  0
  6  7  2  0
  7  8  1  0
  8  9  2  0
  9 10  1  0
 10 11  1  0
 11 12  1  0
 12 13  1  0
 13 14  1  0
 13 15  1  0
 11 16  2  0
 16 17  1  0
 17 18  2  0
 18  6  1  0
 17  9  1  0
M  END
>  <inchikey>  (96) 
HDPXLZCCKIVBQQ-UHFFFAOYSA-N

>  <alias>  (96) 
CCOC(=O)c1ccc2[nH]c(NC(C)C)nc2c1

>  <tags>  (96) 
{'openbind_xx01zvns2b_c1_knitwork_pure', 'fragmenstein_placed'}

>  <HIPPO Pose ID>  (96) 
34967

>  <ref_pdb>  (96) 
71

>  <smiles>  (96) 
C7405-P145

>  <fragmenstein_runtime>  (96) 
2.493438

>  <fragmenstein_outcome>  (96) 
acceptable

>  <fragmenstein_mode>  (96) 
expansion

>  <fragmenstein_error>  (96) 


>  <HIPPO Compound ID>  (96) 
50756

>  <Energy>  (96) 
-12.085159

>  <scratch_subdir>  (96) 
/opt/xchem-fragalysis-2/maxwin/BulkDock/SCRATCH/511030/C7405-P145

$$$$
CC(C)N[C@H]1CC[C@H](NC(=O)c2ccc3nccn3c2)CC1
     RDKit          3D

 22 24  0  0  0  0  0  0  0  0999 V2000
   -3.5405    6.5513  -20.1597 C   0  0  0  0  0  0  0  0  0  0  0  0
   -3.4623    5.3877  -19.1681 C   0  0  0  0  0  0  0  0  0  0  0  0
   -2.5875    5.7520  -17.9746 C   0  0  0  0  0  0  0  0  0  0  0  0
   -4.7247    4.7724  -18.7706 N   0  0  0  0  0  0  0  0  0  0  0  0
   -5.9367    5.5901  -18.7032 C   0  0  1  0  0  0  0  0  0  0  0  0
   -7.1693    4.6982  -18.4573 C   0  0  0  0  0  0  0  0  0  0  0  0
   -7.5956    4.5338  -16.9964 C   0  0  0  0  0  0  0  0  0  0  0  0
   -6.4923    4.7625  -15.9708 C   0  0  2  0  0  0  0  0  0  0  0  0
   -7.0121    4.7458  -14.6175 N   0  0  0  0  0  0  0  0  0  0  0  0
   -8.1495    5.5623  -13.9714 C   0  0  0  0  0  0  0  0  0  0  0  0
   -8.8976    6.3204  -14.4439 O   0  0  0  0  0  0  0  0  0  0  0  0
   -8.1312    5.3334  -12.4956 C   0  0  0  0  0  0  0  0  0  0  0  0
   -8.0624    6.4965  -11.6116 C   0  0  0  0  0  0  0  0  0  0  0  0
   -8.0920    6.3697  -10.2725 C   0  0  0  0  0  0  0  0  0  0  0  0
   -8.2002    5.0771   -9.6940 C   0  0  0  0  0  0  0  0  0  0  0  0
   -8.2469    4.6949   -8.4356 N   0  0  0  0  0  0  0  0  0  0  0  0
   -8.3590    3.3271   -8.4826 C   0  0  0  0  0  0  0  0  0  0  0  0
   -8.3931    2.8830   -9.7819 C   0  0  0  0  0  0  0  0  0  0  0  0
   -8.2841    3.9954  -10.5650 N   0  0  0  0  0  0  0  0  0  0  0  0
   -8.2510    4.1076  -11.9536 C   0  0  0  0  0  0  0  0  0  0  0  0
   -5.7352    6.0755  -16.1994 C   0  0  0  0  0  0  0  0  0  0  0  0
   -5.8752    6.6488  -17.6065 C   0  0  0  0  0  0  0  0  0  0  0  0
  1  2  1  0
  2  3  1  0
  2  4  1  0
  5  4  1  1
  5  6  1  0
  6  7  1  0
  7  8  1  0
  8  9  1  1
  9 10  1  0
 10 11  2  0
 10 12  1  0
 12 13  1  0
 13 14  2  0
 14 15  1  0
 15 16  2  0
 16 17  1  0
 17 18  2  0
 18 19  1  0
 19 20  1  0
  8 21  1  0
 21 22  1  0
 22  5  1  0
 20 12  2  0
 19 15  1  0
M  END
>  <inchikey>  (97) 
GJOIOODYWUSTDV-UHFFFAOYSA-N

>  <alias>  (97) 
CC(C)N[C@H]1CC[C@H](NC(=O)c2ccc3nccn3c2)CC1

>  <tags>  (97) 
{'openbind_xx01zvns2b_c1_knitwork_pure', 'fragmenstein_placed'}

>  <HIPPO Pose ID>  (97) 
35018

>  <ref_pdb>  (97) 
71

>  <smiles>  (97) 
C50839-P84

>  <fragmenstein_runtime>  (97) 
4.649031

>  <fragmenstein_outcome>  (97) 
acceptable

>  <fragmenstein_mode>  (97) 
expansion

>  <fragmenstein_error>  (97) 


>  <HIPPO Compound ID>  (97) 
54021

>  <Energy>  (97) 
32.130788

>  <scratch_subdir>  (97) 
/opt/xchem-fragalysis-2/maxwin/BulkDock/SCRATCH/511030/C50839-P84

$$$$
CC(C)C[C@@H](C(=O)Nc1cc(C(C)C)ccn1)n1ccnc1
     RDKit          3D

 22 23  0  0  0  0  0  0  0  0999 V2000
   -3.4783    7.8870  -22.5921 C   0  0  0  0  0  0  0  0  0  0  0  0
   -3.1915    6.3943  -22.7682 C   0  0  0  0  0  0  0  0  0  0  0  0
   -3.0477    6.0738  -24.2589 C   0  0  0  0  0  0  0  0  0  0  0  0
   -4.2924    5.5166  -22.1464 C   0  0  0  0  0  0  0  0  0  0  0  0
   -4.4904    5.6632  -20.6286 C   0  0  1  0  0  0  0  0  0  0  0  0
   -5.6716    4.7903  -20.1569 C   0  0  0  0  0  0  0  0  0  0  0  0
   -6.2302    4.0316  -20.8572 O   0  0  0  0  0  0  0  0  0  0  0  0
   -5.9731    5.2201  -18.6807 N   0  0  0  0  0  0  0  0  0  0  0  0
   -7.0228    4.8905  -17.8493 C   0  0  0  0  0  0  0  0  0  0  0  0
   -6.8959    5.2207  -16.4969 C   0  0  0  0  0  0  0  0  0  0  0  0
   -7.9423    4.9388  -15.6176 C   0  0  0  0  0  0  0  0  0  0  0  0
   -7.8840    5.2185  -14.1245 C   0  0  0  0  0  0  0  0  0  0  0  0
   -6.5529    4.8248  -13.4826 C   0  0  0  0  0  0  0  0  0  0  0  0
   -8.1998    6.6807  -13.8133 C   0  0  0  0  0  0  0  0  0  0  0  0
   -9.0908    4.3765  -16.1732 C   0  0  0  0  0  0  0  0  0  0  0  0
   -9.1535    4.1306  -17.5355 C   0  0  0  0  0  0  0  0  0  0  0  0
   -8.1322    4.3618  -18.3763 N   0  0  0  0  0  0  0  0  0  0  0  0
   -3.2776    5.4070  -19.8605 N   0  0  0  0  0  0  0  0  0  0  0  0
   -2.8367    6.1567  -18.7991 C   0  0  0  0  0  0  0  0  0  0  0  0
   -1.6156    5.6262  -18.4647 C   0  0  0  0  0  0  0  0  0  0  0  0
   -1.3002    4.5958  -19.3010 N   0  0  0  0  0  0  0  0  0  0  0  0
   -2.3074    4.4870  -20.1322 C   0  0  0  0  0  0  0  0  0  0  0  0
  1  2  1  0
  2  3  1  0
  2  4  1  0
  5  4  1  6
  5  6  1  0
  6  7  2  0
  6  8  1  0
  8  9  1  0
  9 10  2  0
 10 11  1  0
 11 12  1  0
 12 13  1  0
 12 14  1  0
 11 15  2  0
 15 16  1  0
 16 17  2  0
  5 18  1  0
 18 19  1  0
 19 20  2  0
 20 21  1  0
 21 22  2  0
 17  9  1  0
 22 18  1  0
M  END
>  <inchikey>  (98) 
ABLHYFURDXXWME-UHFFFAOYSA-N

>  <alias>  (98) 
CC(C)C[C@@H](C(=O)Nc1cc(C(C)C)ccn1)n1ccnc1

>  <tags>  (98) 
{'openbind_xx01zvns2b_c1_knitwork_pure', 'fragmenstein_placed'}

>  <HIPPO Pose ID>  (98) 
35129

>  <ref_pdb>  (98) 
71

>  <smiles>  (98) 
C9152-P51

>  <fragmenstein_runtime>  (98) 
6.190612

>  <fragmenstein_outcome>  (98) 
acceptable

>  <fragmenstein_mode>  (98) 
expansion

>  <fragmenstein_error>  (98) 


>  <HIPPO Compound ID>  (98) 
16969

>  <Energy>  (98) 
20.946539

>  <scratch_subdir>  (98) 
/opt/xchem-fragalysis-2/maxwin/BulkDock/SCRATCH/511030/C9152-P51

$$$$
N#Cc1cc(NCc2c[nH]cn2)ccn1
     RDKit          3D

 15 16  0  0  0  0  0  0  0  0999 V2000
   -8.2793    5.5894  -13.3901 N   0  0  0  0  0  0  0  0  0  0  0  0
   -8.2638    5.1944  -14.4834 C   0  0  0  0  0  0  0  0  0  0  0  0
   -8.1934    4.8207  -15.8616 C   0  0  0  0  0  0  0  0  0  0  0  0
   -7.0050    4.9956  -16.5500 C   0  0  0  0  0  0  0  0  0  0  0  0
   -6.9931    4.8384  -17.9326 C   0  0  0  0  0  0  0  0  0  0  0  0
   -5.8144    5.1459  -18.5940 N   0  0  0  0  0  0  0  0  0  0  0  0
   -5.6724    5.0461  -20.0370 C   0  0  0  0  0  0  0  0  0  0  0  0
   -4.2530    5.0012  -20.5236 C   0  0  0  0  0  0  0  0  0  0  0  0
   -3.7588    5.2874  -21.7792 C   0  0  0  0  0  0  0  0  0  0  0  0
   -2.4145    5.0492  -21.6987 N   0  0  0  0  0  0  0  0  0  0  0  0
   -2.1370    4.6600  -20.4181 C   0  0  0  0  0  0  0  0  0  0  0  0
   -3.2228    4.6268  -19.6802 N   0  0  0  0  0  0  0  0  0  0  0  0
   -8.2021    4.5264  -18.5536 C   0  0  0  0  0  0  0  0  0  0  0  0
   -9.3384    4.3349  -17.7827 C   0  0  0  0  0  0  0  0  0  0  0  0
   -9.3575    4.4668  -16.4452 N   0  0  0  0  0  0  0  0  0  0  0  0
  1  2  3  0
  2  3  1  0
  3  4  2  0
  4  5  1  0
  5  6  1  0
  6  7  1  0
  7  8  1  0
  8  9  2  0
  9 10  1  0
 10 11  1  0
 11 12  2  0
  5 13  2  0
 13 14  1  0
 14 15  2  0
 15  3  1  0
 12  8  1  0
M  END
>  <inchikey>  (99) 
MFKFMYQMVIOWNQ-UHFFFAOYSA-N

>  <alias>  (99) 
N#Cc1cc(NCc2c[nH]cn2)ccn1

>  <tags>  (99) 
{'openbind_xx01zvns2b_c1_knitwork_pure', 'fragmenstein_placed'}

>  <HIPPO Pose ID>  (99) 
35197

>  <ref_pdb>  (99) 
71

>  <smiles>  (99) 
C3703-P51

>  <fragmenstein_runtime>  (99) 
1.316469

>  <fragmenstein_outcome>  (99) 
acceptable

>  <fragmenstein_mode>  (99) 
expansion

>  <fragmenstein_error>  (99) 


>  <HIPPO Compound ID>  (99) 
4263

>  <Energy>  (99) 
51.879785

>  <scratch_subdir>  (99) 
/opt/xchem-fragalysis-2/maxwin/BulkDock/SCRATCH/511030/C3703-P51

$$$$
COc1cc(NCc2c[nH]cn2)ccn1
     RDKit          3D

 15 16  0  0  0  0  0  0  0  0999 V2000
   -8.7028    5.3975  -13.5517 C   0  0  0  0  0  0  0  0  0  0  0  0
   -7.5376    5.3745  -14.3492 O   0  0  0  0  0  0  0  0  0  0  0  0
   -7.7838    5.0332  -15.6619 C   0  0  0  0  0  0  0  0  0  0  0  0
   -6.6827    5.1230  -16.4855 C   0  0  0  0  0  0  0  0  0  0  0  0
   -6.8325    4.9326  -17.8538 C   0  0  0  0  0  0  0  0  0  0  0  0
   -5.7173    5.1760  -18.6317 N   0  0  0  0  0  0  0  0  0  0  0  0
   -5.6812    5.0587  -20.0738 C   0  0  0  0  0  0  0  0  0  0  0  0
   -4.2880    5.0098  -20.6342 C   0  0  0  0  0  0  0  0  0  0  0  0
   -3.8436    5.3352  -21.8982 C   0  0  0  0  0  0  0  0  0  0  0  0
   -2.4964    5.0992  -21.8766 N   0  0  0  0  0  0  0  0  0  0  0  0
   -2.1666    4.6757  -20.6200 C   0  0  0  0  0  0  0  0  0  0  0  0
   -3.2223    4.6187  -19.8421 N   0  0  0  0  0  0  0  0  0  0  0  0
   -8.1130    4.6562  -18.3264 C   0  0  0  0  0  0  0  0  0  0  0  0
   -9.1586    4.5410  -17.4158 C   0  0  0  0  0  0  0  0  0  0  0  0
   -9.0247    4.7354  -16.0860 N   0  0  0  0  0  0  0  0  0  0  0  0
  1  2  1  0
  2  3  1  0
  3  4  2  0
  4  5  1  0
  5  6  1  0
  6  7  1  0
  7  8  1  0
  8  9  2  0
  9 10  1  0
 10 11  1  0
 11 12  2  0
  5 13  2  0
 13 14  1  0
 14 15  2  0
 15  3  1  0
 12  8  1  0
M  END
>  <inchikey>  (100) 
QRTVYINESUJPJV-UHFFFAOYSA-N

>  <alias>  (100) 
COc1cc(NCc2c[nH]cn2)ccn1

>  <tags>  (100) 
{'openbind_xx01zvns2b_c1_knitwork_pure', 'fragmenstein_placed'}

>  <HIPPO Pose ID>  (100) 
35199

>  <ref_pdb>  (100) 
71

>  <smiles>  (100) 
C3708-P51

>  <fragmenstein_runtime>  (100) 
1.343725

>  <fragmenstein_outcome>  (100) 
acceptable

>  <fragmenstein_mode>  (100) 
expansion

>  <fragmenstein_error>  (100) 


>  <HIPPO Compound ID>  (100) 
50347

>  <Energy>  (100) 
13.505273

>  <scratch_subdir>  (100) 
/opt/xchem-fragalysis-2/maxwin/BulkDock/SCRATCH/511030/C3708-P51

$$$$
c1cncc(-c2nccs2)c1
     RDKit          3D

 11 12  0  0  0  0  0  0  0  0999 V2000
   -8.6273    4.3086  -17.6788 C   0  0  0  0  0  0  0  0  0  0  0  0
   -8.5330    4.5382  -16.3194 C   0  0  0  0  0  0  0  0  0  0  0  0
   -7.4196    5.0027  -15.7143 N   0  0  0  0  0  0  0  0  0  0  0  0
   -6.3336    5.1958  -16.4986 C   0  0  0  0  0  0  0  0  0  0  0  0
   -6.3019    4.9660  -17.8684 C   0  0  0  0  0  0  0  0  0  0  0  0
   -5.1024    5.1719  -18.6799 C   0  0  0  0  0  0  0  0  0  0  0  0
   -5.1228    5.4799  -19.9601 N   0  0  0  0  0  0  0  0  0  0  0  0
   -3.8378    5.6069  -20.4419 C   0  0  0  0  0  0  0  0  0  0  0  0
   -2.8336    5.3548  -19.5369 C   0  0  0  0  0  0  0  0  0  0  0  0
   -3.5178    4.9932  -18.0130 S   0  0  0  0  0  0  0  0  0  0  0  0
   -7.4969    4.5385  -18.4593 C   0  0  0  0  0  0  0  0  0  0  0  0
  1  2  2  0
  2  3  1  0
  3  4  2  0
  4  5  1  0
  5  6  1  0
  6  7  2  0
  7  8  1  0
  8  9  2  0
  9 10  1  0
  5 11  2  0
 11  1  1  0
 10  6  1  0
M  END
>  <inchikey>  (101) 
RYSYUMJDZXAFBL-UHFFFAOYSA-N

>  <alias>  (101) 
c1cncc(-c2nccs2)c1

>  <tags>  (101) 
{'openbind_xx01zvns2b_c1_knitwork_pure', 'fragmenstein_placed'}

>  <HIPPO Pose ID>  (101) 
35228

>  <ref_pdb>  (101) 
71

>  <smiles>  (101) 
C4245-P29

>  <fragmenstein_runtime>  (101) 
1.526486

>  <fragmenstein_outcome>  (101) 
acceptable

>  <fragmenstein_mode>  (101) 
expansion

>  <fragmenstein_error>  (101) 


>  <HIPPO Compound ID>  (101) 
2006

>  <Energy>  (101) 
35.315486

>  <scratch_subdir>  (101) 
/opt/xchem-fragalysis-2/maxwin/BulkDock/SCRATCH/511030/C4245-P29

$$$$
c1cc(-c2nccs2)ccn1
     RDKit          3D

 11 12  0  0  0  0  0  0  0  0999 V2000
   -8.9007    4.3279  -17.6098 C   0  0  0  0  0  0  0  0  0  0  0  0
   -7.7484    4.5919  -18.3279 C   0  0  0  0  0  0  0  0  0  0  0  0
   -6.5367    4.7653  -17.6468 C   0  0  0  0  0  0  0  0  0  0  0  0
   -5.3159    5.0299  -18.4320 C   0  0  0  0  0  0  0  0  0  0  0  0
   -5.3204    5.2828  -19.7271 N   0  0  0  0  0  0  0  0  0  0  0  0
   -4.0381    5.4822  -20.1900 C   0  0  0  0  0  0  0  0  0  0  0  0
   -3.0424    5.3506  -19.2517 C   0  0  0  0  0  0  0  0  0  0  0  0
   -3.7382    5.0140  -17.7260 S   0  0  0  0  0  0  0  0  0  0  0  0
   -6.5573    4.6682  -16.2515 C   0  0  0  0  0  0  0  0  0  0  0  0
   -7.7588    4.3848  -15.6198 C   0  0  0  0  0  0  0  0  0  0  0  0
   -8.9276    4.2175  -16.2692 N   0  0  0  0  0  0  0  0  0  0  0  0
  1  2  2  0
  2  3  1  0
  3  4  1  0
  4  5  2  0
  5  6  1  0
  6  7  2  0
  7  8  1  0
  3  9  2  0
  9 10  1  0
 10 11  2  0
 11  1  1  0
  8  4  1  0
M  END
>  <inchikey>  (102) 
ZSEYMECYFVXCGS-UHFFFAOYSA-N

>  <alias>  (102) 
c1cc(-c2nccs2)ccn1

>  <tags>  (102) 
{'openbind_xx01zvns2b_c1_knitwork_pure', 'fragmenstein_placed'}

>  <HIPPO Pose ID>  (102) 
35261

>  <ref_pdb>  (102) 
71

>  <smiles>  (102) 
C1189-P29

>  <fragmenstein_runtime>  (102) 
0.668055

>  <fragmenstein_outcome>  (102) 
acceptable

>  <fragmenstein_mode>  (102) 
expansion

>  <fragmenstein_error>  (102) 


>  <HIPPO Compound ID>  (102) 
7984

>  <Energy>  (102) 
18.80614

>  <scratch_subdir>  (102) 
/opt/xchem-fragalysis-2/maxwin/BulkDock/SCRATCH/511030/C1189-P29

$$$$
C[C@H](Oc1ccccc1Br)C(=O)Nc1ccncn1
     RDKit          3D

 19 20  0  0  0  0  0  0  0  0999 V2000
   -3.3905    4.7134  -17.6690 C   0  0  0  0  0  0  0  0  0  0  0  0
   -4.4660    4.9327  -16.6138 C   0  0  2  0  0  0  0  0  0  0  0  0
   -5.4955    5.7324  -17.2090 O   0  0  0  0  0  0  0  0  0  0  0  0
   -6.6983    5.0875  -17.3194 C   0  0  0  0  0  0  0  0  0  0  0  0
   -7.1217    4.7895  -18.6136 C   0  0  0  0  0  0  0  0  0  0  0  0
   -8.3943    4.2614  -18.8314 C   0  0  0  0  0  0  0  0  0  0  0  0
   -9.2531    4.0386  -17.7625 C   0  0  0  0  0  0  0  0  0  0  0  0
   -8.8298    4.3189  -16.4671 C   0  0  0  0  0  0  0  0  0  0  0  0
   -7.5618    4.8577  -16.2430 C   0  0  0  0  0  0  0  0  0  0  0  0
   -7.1442    5.3353  -14.4625 Br  0  0  0  0  0  0  0  0  0  0  0  0
   -3.7979    5.6596  -15.4178 C   0  0  0  0  0  0  0  0  0  0  0  0
   -3.1027    5.1146  -14.6495 O   0  0  0  0  0  0  0  0  0  0  0  0
   -4.1661    7.1667  -15.5528 N   0  0  0  0  0  0  0  0  0  0  0  0
   -3.8450    8.2423  -14.7515 C   0  0  0  0  0  0  0  0  0  0  0  0
   -3.0979    8.0851  -13.6064 C   0  0  0  0  0  0  0  0  0  0  0  0
   -2.8481    9.2333  -12.8925 C   0  0  0  0  0  0  0  0  0  0  0  0
   -3.2891   10.4485  -13.2624 N   0  0  0  0  0  0  0  0  0  0  0  0
   -4.0075   10.4812  -14.3931 C   0  0  0  0  0  0  0  0  0  0  0  0
   -4.3142    9.4310  -15.1679 N   0  0  0  0  0  0  0  0  0  0  0  0
  2  1  1  6
  2  3  1  0
  3  4  1  0
  4  5  2  0
  5  6  1  0
  6  7  2  0
  7  8  1  0
  8  9  2  0
  9 10  1  0
  2 11  1  0
 11 12  2  0
 11 13  1  0
 13 14  1  0
 14 15  2  0
 15 16  1  0
 16 17  2  0
 17 18  1  0
 18 19  2  0
  9  4  1  0
 19 14  1  0
M  END
>  <inchikey>  (103) 
ANXNIEHAAQDSIC-UHFFFAOYSA-N

>  <alias>  (103) 
C[C@H](Oc1ccccc1Br)C(=O)Nc1ccncn1

>  <tags>  (103) 
{'openbind_xx01zvns2b_c1_knitwork_pure', 'fragmenstein_placed'}

>  <HIPPO Pose ID>  (103) 
35444

>  <ref_pdb>  (103) 
71

>  <smiles>  (103) 
C51137-P54

>  <fragmenstein_runtime>  (103) 
1.601977

>  <fragmenstein_outcome>  (103) 
acceptable

>  <fragmenstein_mode>  (103) 
expansion

>  <fragmenstein_error>  (103) 


>  <HIPPO Compound ID>  (103) 
6452

>  <Energy>  (103) 
7.386402

>  <scratch_subdir>  (103) 
/opt/xchem-fragalysis-2/maxwin/BulkDock/SCRATCH/511030/C51137-P54

$$$$
Clc1cnccc1NCc1ccc2cccnc2c1
     RDKit          3D

 19 21  0  0  0  0  0  0  0  0999 V2000
   -4.0781    5.4855  -15.6076 Cl  0  0  0  0  0  0  0  0  0  0  0  0
   -5.3764    5.1533  -16.6833 C   0  0  0  0  0  0  0  0  0  0  0  0
   -5.1176    5.1494  -18.0415 C   0  0  0  0  0  0  0  0  0  0  0  0
   -6.0523    4.9113  -18.9741 N   0  0  0  0  0  0  0  0  0  0  0  0
   -7.2972    4.6429  -18.5267 C   0  0  0  0  0  0  0  0  0  0  0  0
   -7.6519    4.6304  -17.1853 C   0  0  0  0  0  0  0  0  0  0  0  0
   -6.6824    4.9207  -16.2231 C   0  0  0  0  0  0  0  0  0  0  0  0
   -6.9488    4.8798  -14.8510 N   0  0  0  0  0  0  0  0  0  0  0  0
   -8.2699    5.2073  -14.3524 C   0  0  0  0  0  0  0  0  0  0  0  0
   -8.2319    5.2162  -12.8468 C   0  0  0  0  0  0  0  0  0  0  0  0
   -8.1551    6.4070  -12.1185 C   0  0  0  0  0  0  0  0  0  0  0  0
   -8.1160    6.3706  -10.7238 C   0  0  0  0  0  0  0  0  0  0  0  0
   -8.1493    5.1411  -10.0448 C   0  0  0  0  0  0  0  0  0  0  0  0
   -8.1206    5.0605   -8.6463 C   0  0  0  0  0  0  0  0  0  0  0  0
   -8.1621    3.8158   -8.0300 C   0  0  0  0  0  0  0  0  0  0  0  0
   -8.2229    2.6923   -8.8318 C   0  0  0  0  0  0  0  0  0  0  0  0
   -8.2465    2.7407  -10.1783 N   0  0  0  0  0  0  0  0  0  0  0  0
   -8.2129    3.9368  -10.7721 C   0  0  0  0  0  0  0  0  0  0  0  0
   -8.2398    3.9962  -12.1540 C   0  0  0  0  0  0  0  0  0  0  0  0
  1  2  1  0
  2  3  2  0
  3  4  1  0
  4  5  2  0
  5  6  1  0
  6  7  2  0
  7  8  1  0
  8  9  1  0
  9 10  1  0
 10 11  2  0
 11 12  1  0
 12 13  2  0
 13 14  1  0
 14 15  2  0
 15 16  1  0
 16 17  2  0
 17 18  1  0
 18 19  2  0
  7  2  1  0
 19 10  1  0
 18 13  1  0
M  END
>  <inchikey>  (104) 
GGVYTHGFHLQTPS-UHFFFAOYSA-N

>  <alias>  (104) 
Clc1cnccc1NCc1ccc2cccnc2c1

>  <tags>  (104) 
{'openbind_xx01zvns2b_c1_knitwork_pure', 'fragmenstein_placed'}

>  <HIPPO Pose ID>  (104) 
35493

>  <ref_pdb>  (104) 
71

>  <smiles>  (104) 
C51209-P84

>  <fragmenstein_runtime>  (104) 
2.484085

>  <fragmenstein_outcome>  (104) 
acceptable

>  <fragmenstein_mode>  (104) 
expansion

>  <fragmenstein_error>  (104) 


>  <HIPPO Compound ID>  (104) 
1717

>  <Energy>  (104) 
73.959393

>  <scratch_subdir>  (104) 
/opt/xchem-fragalysis-2/maxwin/BulkDock/SCRATCH/511030/C51209-P84

$$$$
c1cnc(NCc2ccc3cccnc3c2)c(N2CCCC2)c1
     RDKit          3D

 23 26  0  0  0  0  0  0  0  0999 V2000
   -6.9196    4.5956  -18.9077 C   0  0  0  0  0  0  0  0  0  0  0  0
   -8.0669    4.6599  -18.1650 C   0  0  0  0  0  0  0  0  0  0  0  0
   -8.0610    4.9107  -16.8505 N   0  0  0  0  0  0  0  0  0  0  0  0
   -6.8700    5.1016  -16.2297 C   0  0  0  0  0  0  0  0  0  0  0  0
   -6.8989    5.2556  -14.8222 N   0  0  0  0  0  0  0  0  0  0  0  0
   -8.2337    5.0866  -14.2694 C   0  0  0  0  0  0  0  0  0  0  0  0
   -8.1608    5.1258  -12.7657 C   0  0  0  0  0  0  0  0  0  0  0  0
   -8.0481    6.3339  -12.0714 C   0  0  0  0  0  0  0  0  0  0  0  0
   -8.0202    6.3368  -10.6770 C   0  0  0  0  0  0  0  0  0  0  0  0
   -8.0976    5.1277   -9.9659 C   0  0  0  0  0  0  0  0  0  0  0  0
   -8.0842    5.0836   -8.5659 C   0  0  0  0  0  0  0  0  0  0  0  0
   -8.1671    3.8570   -7.9180 C   0  0  0  0  0  0  0  0  0  0  0  0
   -8.2524    2.7143   -8.6900 C   0  0  0  0  0  0  0  0  0  0  0  0
   -8.2645    2.7273  -10.0366 N   0  0  0  0  0  0  0  0  0  0  0  0
   -8.1920    3.9060  -10.6608 C   0  0  0  0  0  0  0  0  0  0  0  0
   -8.2109    3.9260  -12.0427 C   0  0  0  0  0  0  0  0  0  0  0  0
   -5.6256    5.1370  -16.9225 C   0  0  0  0  0  0  0  0  0  0  0  0
   -4.3880    5.3939  -16.3340 N   0  0  0  0  0  0  0  0  0  0  0  0
   -4.2774    6.3099  -15.1907 C   0  0  0  0  0  0  0  0  0  0  0  0
   -2.8995    6.9577  -15.3524 C   0  0  0  0  0  0  0  0  0  0  0  0
   -2.1143    5.9296  -16.1477 C   0  0  0  0  0  0  0  0  0  0  0  0
   -3.1579    5.4130  -17.1239 C   0  0  0  0  0  0  0  0  0  0  0  0
   -5.7036    4.8455  -18.2899 C   0  0  0  0  0  0  0  0  0  0  0  0
  1  2  2  0
  2  3  1  0
  3  4  2  0
  4  5  1  0
  5  6  1  0
  6  7  1  0
  7  8  2  0
  8  9  1  0
  9 10  2  0
 10 11  1  0
 11 12  2  0
 12 13  1  0
 13 14  2  0
 14 15  1  0
 15 16  2  0
  4 17  1  0
 17 18  1  0
 18 19  1  0
 19 20  1  0
 20 21  1  0
 21 22  1  0
 17 23  2  0
 23  1  1  0
 16  7  1  0
 22 18  1  0
 15 10  1  0
M  END
>  <inchikey>  (105) 
DQUVISYMGRKHFM-UHFFFAOYSA-N

>  <alias>  (105) 
c1cnc(NCc2ccc3cccnc3c2)c(N2CCCC2)c1

>  <tags>  (105) 
{'openbind_xx01zvns2b_c1_knitwork_pure', 'fragmenstein_placed'}

>  <HIPPO Pose ID>  (105) 
35500

>  <ref_pdb>  (105) 
71

>  <smiles>  (105) 
C51219-P84

>  <fragmenstein_runtime>  (105) 
2.36767

>  <fragmenstein_outcome>  (105) 
acceptable

>  <fragmenstein_mode>  (105) 
expansion

>  <fragmenstein_error>  (105) 


>  <HIPPO Compound ID>  (105) 
2008

>  <Energy>  (105) 
48.221608

>  <scratch_subdir>  (105) 
/opt/xchem-fragalysis-2/maxwin/BulkDock/SCRATCH/511030/C51219-P84

$$$$
C[C@@H](Nc1ccnc2ccccc12)c1ccccn1
     RDKit          3D

 19 21  0  0  0  0  0  0  0  0999 V2000
   -8.8284    6.2946  -14.2149 C   0  0  0  0  0  0  0  0  0  0  0  0
   -8.2165    4.9264  -13.9450 C   0  0  1  0  0  0  0  0  0  0  0  0
   -6.9427    4.7661  -14.6673 N   0  0  0  0  0  0  0  0  0  0  0  0
   -6.9090    4.7794  -16.0785 C   0  0  0  0  0  0  0  0  0  0  0  0
   -8.0150    4.4519  -16.8651 C   0  0  0  0  0  0  0  0  0  0  0  0
   -7.8924    4.4900  -18.2398 C   0  0  0  0  0  0  0  0  0  0  0  0
   -6.7514    4.7988  -18.8753 N   0  0  0  0  0  0  0  0  0  0  0  0
   -5.6767    5.0822  -18.1452 C   0  0  0  0  0  0  0  0  0  0  0  0
   -4.5177    5.4126  -18.8278 C   0  0  0  0  0  0  0  0  0  0  0  0
   -3.3334    5.7020  -18.1609 C   0  0  0  0  0  0  0  0  0  0  0  0
   -3.3128    5.6769  -16.7738 C   0  0  0  0  0  0  0  0  0  0  0  0
   -4.4777    5.3740  -16.0663 C   0  0  0  0  0  0  0  0  0  0  0  0
   -5.6825    5.0697  -16.7370 C   0  0  0  0  0  0  0  0  0  0  0  0
   -8.0177    4.7503  -12.4393 C   0  0  0  0  0  0  0  0  0  0  0  0
   -8.0525    3.4652  -11.9021 C   0  0  0  0  0  0  0  0  0  0  0  0
   -7.9691    3.3078  -10.5236 C   0  0  0  0  0  0  0  0  0  0  0  0
   -7.8375    4.4290   -9.7159 C   0  0  0  0  0  0  0  0  0  0  0  0
   -7.7831    5.6695  -10.3242 C   0  0  0  0  0  0  0  0  0  0  0  0
   -7.8624    5.8567  -11.6588 N   0  0  0  0  0  0  0  0  0  0  0  0
  2  1  1  1
  2  3  1  0
  3  4  1  0
  4  5  2  0
  5  6  1  0
  6  7  2  0
  7  8  1  0
  8  9  2  0
  9 10  1  0
 10 11  2  0
 11 12  1  0
 12 13  2  0
  2 14  1  0
 14 15  2  0
 15 16  1  0
 16 17  2  0
 17 18  1  0
 18 19  2  0
 13  4  1  0
 19 14  1  0
 13  8  1  0
M  END
>  <inchikey>  (106) 
XNRJGPBKDUHTNI-UHFFFAOYSA-N

>  <alias>  (106) 
C[C@@H](Nc1ccnc2ccccc12)c1ccccn1

>  <tags>  (106) 
{'openbind_xx01zvns2b_c1_knitwork_pure', 'fragmenstein_placed'}

>  <HIPPO Pose ID>  (106) 
35513

>  <ref_pdb>  (106) 
71

>  <smiles>  (106) 
C781-P84

>  <fragmenstein_runtime>  (106) 
1.615234

>  <fragmenstein_outcome>  (106) 
acceptable

>  <fragmenstein_mode>  (106) 
expansion

>  <fragmenstein_error>  (106) 


>  <HIPPO Compound ID>  (106) 
13324

>  <Energy>  (106) 
87.841075

>  <scratch_subdir>  (106) 
/opt/xchem-fragalysis-2/maxwin/BulkDock/SCRATCH/511030/C781-P84

$$$$
C[C@@H](Nc1ccnc2ccccc12)c1ccc(Br)cn1
     RDKit          3D

 20 22  0  0  0  0  0  0  0  0999 V2000
   -8.8487    6.2209  -14.2984 C   0  0  0  0  0  0  0  0  0  0  0  0
   -8.1794    4.8801  -14.0200 C   0  0  1  0  0  0  0  0  0  0  0  0
   -6.8814    4.7809  -14.7007 N   0  0  0  0  0  0  0  0  0  0  0  0
   -6.8074    4.8018  -16.1084 C   0  0  0  0  0  0  0  0  0  0  0  0
   -7.8908    4.4241  -16.9086 C   0  0  0  0  0  0  0  0  0  0  0  0
   -7.7770    4.5002  -18.2811 C   0  0  0  0  0  0  0  0  0  0  0  0
   -6.6567    4.8841  -18.9084 N   0  0  0  0  0  0  0  0  0  0  0  0
   -5.5866    5.1646  -18.1738 C   0  0  0  0  0  0  0  0  0  0  0  0
   -4.4427    5.5265  -18.8648 C   0  0  0  0  0  0  0  0  0  0  0  0
   -3.2481    5.7917  -18.2092 C   0  0  0  0  0  0  0  0  0  0  0  0
   -3.2013    5.7012  -16.8262 C   0  0  0  0  0  0  0  0  0  0  0  0
   -4.3536    5.3714  -16.1087 C   0  0  0  0  0  0  0  0  0  0  0  0
   -5.5796    5.1101  -16.7642 C   0  0  0  0  0  0  0  0  0  0  0  0
   -8.0088    4.7148  -12.5140 C   0  0  0  0  0  0  0  0  0  0  0  0
   -8.0591    3.4343  -11.9672 C   0  0  0  0  0  0  0  0  0  0  0  0
   -8.0815    3.2907  -10.5848 C   0  0  0  0  0  0  0  0  0  0  0  0
   -8.0341    4.4259   -9.7912 C   0  0  0  0  0  0  0  0  0  0  0  0
   -8.1506    4.2874   -7.9215 Br  0  0  0  0  0  0  0  0  0  0  0  0
   -7.9186    5.6618  -10.4040 C   0  0  0  0  0  0  0  0  0  0  0  0
   -7.8883    5.8350  -11.7454 N   0  0  0  0  0  0  0  0  0  0  0  0
  2  1  1  1
  2  3  1  0
  3  4  1  0
  4  5  2  0
  5  6  1  0
  6  7  2  0
  7  8  1  0
  8  9  2  0
  9 10  1  0
 10 11  2  0
 11 12  1  0
 12 13  2  0
  2 14  1  0
 14 15  2  0
 15 16  1  0
 16 17  2  0
 17 18  1  0
 17 19  1  0
 19 20  2  0
 13  4  1  0
 20 14  1  0
 13  8  1  0
M  END
>  <inchikey>  (107) 
DJFBDOUCMHBZBP-UHFFFAOYSA-N

>  <alias>  (107) 
C[C@@H](Nc1ccnc2ccccc12)c1ccc(Br)cn1

>  <tags>  (107) 
{'openbind_xx01zvns2b_c1_knitwork_pure', 'fragmenstein_placed'}

>  <HIPPO Pose ID>  (107) 
35514

>  <ref_pdb>  (107) 
71

>  <smiles>  (107) 
C782-P84

>  <fragmenstein_runtime>  (107) 
1.709834

>  <fragmenstein_outcome>  (107) 
acceptable

>  <fragmenstein_mode>  (107) 
expansion

>  <fragmenstein_error>  (107) 


>  <HIPPO Compound ID>  (107) 
47891

>  <Energy>  (107) 
92.517786

>  <scratch_subdir>  (107) 
/opt/xchem-fragalysis-2/maxwin/BulkDock/SCRATCH/511030/C782-P84

$$$$
c1ccc(-c2cc(CNc3cccc4cccnc34)[nH]n2)nc1
     RDKit          3D

 23 26  0  0  0  0  0  0  0  0999 V2000
   -9.0795    2.0274   -6.9941 C   0  0  0  0  0  0  0  0  0  0  0  0
   -8.4462    3.2439   -6.8334 C   0  0  0  0  0  0  0  0  0  0  0  0
   -8.1356    4.0047   -7.9570 C   0  0  0  0  0  0  0  0  0  0  0  0
   -8.4773    3.5268   -9.2176 C   0  0  0  0  0  0  0  0  0  0  0  0
   -8.2089    4.3221  -10.4186 C   0  0  0  0  0  0  0  0  0  0  0  0
   -8.3147    3.8974  -11.7690 C   0  0  0  0  0  0  0  0  0  0  0  0
   -8.0435    5.0081  -12.5351 C   0  0  0  0  0  0  0  0  0  0  0  0
   -8.0642    5.2161  -13.9985 C   0  0  0  0  0  0  0  0  0  0  0  0
   -6.9290    4.6028  -14.6595 N   0  0  0  0  0  0  0  0  0  0  0  0
   -6.9057    4.6984  -16.0733 C   0  0  0  0  0  0  0  0  0  0  0  0
   -8.0418    4.3583  -16.8266 C   0  0  0  0  0  0  0  0  0  0  0  0
   -8.0131    4.4159  -18.2091 C   0  0  0  0  0  0  0  0  0  0  0  0
   -6.8395    4.7883  -18.8433 C   0  0  0  0  0  0  0  0  0  0  0  0
   -5.6948    5.1200  -18.1214 C   0  0  0  0  0  0  0  0  0  0  0  0
   -4.5296    5.5065  -18.7905 C   0  0  0  0  0  0  0  0  0  0  0  0
   -3.3936    5.8089  -18.0647 C   0  0  0  0  0  0  0  0  0  0  0  0
   -3.4762    5.7322  -16.6883 C   0  0  0  0  0  0  0  0  0  0  0  0
   -4.5934    5.3897  -16.0081 N   0  0  0  0  0  0  0  0  0  0  0  0
   -5.7032    5.0684  -16.7169 C   0  0  0  0  0  0  0  0  0  0  0  0
   -7.7406    5.9926  -11.6469 N   0  0  0  0  0  0  0  0  0  0  0  0
   -7.8413    5.6202  -10.3641 N   0  0  0  0  0  0  0  0  0  0  0  0
   -9.1013    2.3440   -9.3921 N   0  0  0  0  0  0  0  0  0  0  0  0
   -9.3641    1.6209   -8.2802 C   0  0  0  0  0  0  0  0  0  0  0  0
  1  2  2  0
  2  3  1  0
  3  4  2  0
  4  5  1  0
  5  6  1  0
  6  7  2  0
  7  8  1  0
  8  9  1  0
  9 10  1  0
 10 11  2  0
 11 12  1  0
 12 13  2  0
 13 14  1  0
 14 15  2  0
 15 16  1  0
 16 17  2  0
 17 18  1  0
 18 19  2  0
  7 20  1  0
 20 21  1  0
  4 22  1  0
 22 23  2  0
 23  1  1  0
 21  5  2  0
 19 10  1  0
 19 14  1  0
M  END
>  <inchikey>  (108) 
QEHKIEIOAADRQL-UHFFFAOYSA-N

>  <alias>  (108) 
c1ccc(-c2cc(CNc3cccc4cccnc34)[nH]n2)nc1

>  <tags>  (108) 
{'openbind_xx01zvns2b_c1_knitwork_pure', 'fragmenstein_placed'}

>  <HIPPO Pose ID>  (108) 
35557

>  <ref_pdb>  (108) 
71

>  <smiles>  (108) 
C856-P84

>  <fragmenstein_runtime>  (108) 
2.466951

>  <fragmenstein_outcome>  (108) 
acceptable

>  <fragmenstein_mode>  (108) 
expansion

>  <fragmenstein_error>  (108) 


>  <HIPPO Compound ID>  (108) 
17089

>  <Energy>  (108) 
93.146745

>  <scratch_subdir>  (108) 
/opt/xchem-fragalysis-2/maxwin/BulkDock/SCRATCH/511030/C856-P84

$$$$
N#Cc1c(NCc2ccc3cccnc3c2)nc2ccccn12
     RDKit          3D

 23 26  0  0  0  0  0  0  0  0999 V2000
   -9.3035    4.1691  -17.6018 N   0  0  0  0  0  0  0  0  0  0  0  0
   -8.2444    4.4256  -17.2028 C   0  0  0  0  0  0  0  0  0  0  0  0
   -6.9371    4.7817  -16.7903 C   0  0  0  0  0  0  0  0  0  0  0  0
   -6.3548    4.8419  -15.5481 C   0  0  0  0  0  0  0  0  0  0  0  0
   -6.8618    4.6706  -14.3275 N   0  0  0  0  0  0  0  0  0  0  0  0
   -8.1923    5.1164  -13.9820 C   0  0  0  0  0  0  0  0  0  0  0  0
   -8.2755    5.1447  -12.4827 C   0  0  0  0  0  0  0  0  0  0  0  0
   -8.1665    6.3375  -11.7628 C   0  0  0  0  0  0  0  0  0  0  0  0
   -8.1489    6.3055  -10.3697 C   0  0  0  0  0  0  0  0  0  0  0  0
   -8.2302    5.0788   -9.6898 C   0  0  0  0  0  0  0  0  0  0  0  0
   -8.1984    4.9990   -8.2922 C   0  0  0  0  0  0  0  0  0  0  0  0
   -8.2776    3.7562   -7.6763 C   0  0  0  0  0  0  0  0  0  0  0  0
   -8.3836    2.6339   -8.4755 C   0  0  0  0  0  0  0  0  0  0  0  0
   -8.4203    2.6816   -9.8198 N   0  0  0  0  0  0  0  0  0  0  0  0
   -8.3420    3.8746  -10.4128 C   0  0  0  0  0  0  0  0  0  0  0  0
   -8.3571    3.9277  -11.7911 C   0  0  0  0  0  0  0  0  0  0  0  0
   -5.0329    5.1531  -15.6006 N   0  0  0  0  0  0  0  0  0  0  0  0
   -4.7885    5.3633  -16.8681 C   0  0  0  0  0  0  0  0  0  0  0  0
   -3.5991    5.7844  -17.5229 C   0  0  0  0  0  0  0  0  0  0  0  0
   -3.6334    6.0750  -18.8352 C   0  0  0  0  0  0  0  0  0  0  0  0
   -4.8600    5.9454  -19.5937 C   0  0  0  0  0  0  0  0  0  0  0  0
   -5.9624    5.4681  -18.9961 C   0  0  0  0  0  0  0  0  0  0  0  0
   -5.9333    5.1850  -17.6391 N   0  0  0  0  0  0  0  0  0  0  0  0
  1  2  3  0
  2  3  1  0
  3  4  2  0
  4  5  1  0
  5  6  1  0
  6  7  1  0
  7  8  2  0
  8  9  1  0
  9 10  2  0
 10 11  1  0
 11 12  2  0
 12 13  1  0
 13 14  2  0
 14 15  1  0
 15 16  2  0
  4 17  1  0
 17 18  2  0
 18 19  1  0
 19 20  2  0
 20 21  1  0
 21 22  2  0
 22 23  1  0
 23  3  1  0
 16  7  1  0
 23 18  1  0
 15 10  1  0
M  END
>  <inchikey>  (109) 
JIEBUYZANCZJSB-UHFFFAOYSA-N

>  <alias>  (109) 
N#Cc1c(NCc2ccc3cccnc3c2)nc2ccccn12

>  <tags>  (109) 
{'openbind_xx01zvns2b_c1_knitwork_pure', 'fragmenstein_placed'}

>  <HIPPO Pose ID>  (109) 
35568

>  <ref_pdb>  (109) 
71

>  <smiles>  (109) 
C51297-P84

>  <fragmenstein_runtime>  (109) 
2.701142

>  <fragmenstein_outcome>  (109) 
acceptable

>  <fragmenstein_mode>  (109) 
expansion

>  <fragmenstein_error>  (109) 


>  <HIPPO Compound ID>  (109) 
13046

>  <Energy>  (109) 
6.871137

>  <scratch_subdir>  (109) 
/opt/xchem-fragalysis-2/maxwin/BulkDock/SCRATCH/511030/C51297-P84

$$$$
Cc1ccc2nc(C(=O)Nc3ccnc4ccccc34)cn2c1
     RDKit          3D

 23 26  0  0  0  0  0  0  0  0999 V2000
   -8.7817    2.3397   -7.2912 C   0  0  0  0  0  0  0  0  0  0  0  0
   -8.4910    3.2849   -8.4142 C   0  0  0  0  0  0  0  0  0  0  0  0
   -8.2466    4.6983   -8.1284 C   0  0  0  0  0  0  0  0  0  0  0  0
   -8.0463    5.6026   -9.1111 C   0  0  0  0  0  0  0  0  0  0  0  0
   -8.0760    5.1840  -10.4690 C   0  0  0  0  0  0  0  0  0  0  0  0
   -8.0119    5.8621  -11.5994 N   0  0  0  0  0  0  0  0  0  0  0  0
   -8.2018    4.9136  -12.5841 C   0  0  0  0  0  0  0  0  0  0  0  0
   -8.4506    5.2113  -13.9863 C   0  0  0  0  0  0  0  0  0  0  0  0
   -9.5179    5.5211  -14.3424 O   0  0  0  0  0  0  0  0  0  0  0  0
   -7.1642    4.9444  -14.7957 N   0  0  0  0  0  0  0  0  0  0  0  0
   -6.9513    4.9110  -16.1748 C   0  0  0  0  0  0  0  0  0  0  0  0
   -8.0510    4.7340  -17.0093 C   0  0  0  0  0  0  0  0  0  0  0  0
   -7.8371    4.7032  -18.3672 C   0  0  0  0  0  0  0  0  0  0  0  0
   -6.6245    4.8565  -18.9259 N   0  0  0  0  0  0  0  0  0  0  0  0
   -5.5723    5.0410  -18.1327 C   0  0  0  0  0  0  0  0  0  0  0  0
   -4.3552    5.2533  -18.7556 C   0  0  0  0  0  0  0  0  0  0  0  0
   -3.1849    5.4373  -18.0320 C   0  0  0  0  0  0  0  0  0  0  0  0
   -3.2370    5.4213  -16.6462 C   0  0  0  0  0  0  0  0  0  0  0  0
   -4.4587    5.2376  -15.9949 C   0  0  0  0  0  0  0  0  0  0  0  0
   -5.6548    5.0484  -16.7276 C   0  0  0  0  0  0  0  0  0  0  0  0
   -8.2347    3.6442  -12.0493 C   0  0  0  0  0  0  0  0  0  0  0  0
   -8.2546    3.8258  -10.6976 N   0  0  0  0  0  0  0  0  0  0  0  0
   -8.4632    2.8928   -9.6979 C   0  0  0  0  0  0  0  0  0  0  0  0
  1  2  1  0
  2  3  1  0
  3  4  2  0
  4  5  1  0
  5  6  2  0
  6  7  1  0
  7  8  1  0
  8  9  2  0
  8 10  1  0
 10 11  1  0
 11 12  2  0
 12 13  1  0
 13 14  2  0
 14 15  1  0
 15 16  2  0
 16 17  1  0
 17 18  2  0
 18 19  1  0
 19 20  2  0
  7 21  2  0
 21 22  1  0
 22 23  1  0
 23  2  2  0
 22  5  1  0
 20 11  1  0
 20 15  1  0
M  END
>  <inchikey>  (110) 
BPQDFRJLUCMFHU-UHFFFAOYSA-N

>  <alias>  (110) 
Cc1ccc2nc(C(=O)Nc3ccnc4ccccc34)cn2c1

>  <tags>  (110) 
{'openbind_xx01zvns2b_c1_knitwork_pure', 'fragmenstein_placed'}

>  <HIPPO Pose ID>  (110) 
35576

>  <ref_pdb>  (110) 
71

>  <smiles>  (110) 
C51316-P84

>  <fragmenstein_runtime>  (110) 
3.787167

>  <fragmenstein_outcome>  (110) 
acceptable

>  <fragmenstein_mode>  (110) 
expansion

>  <fragmenstein_error>  (110) 


>  <HIPPO Compound ID>  (110) 
12439

>  <Energy>  (110) 
96.02554

>  <scratch_subdir>  (110) 
/opt/xchem-fragalysis-2/maxwin/BulkDock/SCRATCH/511030/C51316-P84

$$$$
CN1CCC(=O)[C@@H](CCc2ccncc2)C1
     RDKit          3D

 16 17  0  0  0  0  0  0  0  0999 V2000
   -5.0018    5.4762  -18.5392 C   0  0  0  0  0  0  0  0  0  0  0  0
   -6.3758    5.5674  -18.0455 N   0  0  0  0  0  0  0  0  0  0  0  0
   -7.2595    4.8070  -18.9399 C   0  0  0  0  0  0  0  0  0  0  0  0
   -8.7076    4.8743  -18.5081 C   0  0  0  0  0  0  0  0  0  0  0  0
   -8.8511    4.5515  -17.0401 C   0  0  0  0  0  0  0  0  0  0  0  0
   -9.8365    3.9227  -16.6579 O   0  0  0  0  0  0  0  0  0  0  0  0
   -7.8253    5.1516  -16.0753 C   0  0  1  0  0  0  0  0  0  0  0  0
   -7.7300    4.4999  -14.6768 C   0  0  0  0  0  0  0  0  0  0  0  0
   -8.7830    4.9927  -13.6950 C   0  0  0  0  0  0  0  0  0  0  0  0
   -8.4156    4.7769  -12.2436 C   0  0  0  0  0  0  0  0  0  0  0  0
   -8.2714    3.4976  -11.6990 C   0  0  0  0  0  0  0  0  0  0  0  0
   -7.9925    3.3672  -10.3434 C   0  0  0  0  0  0  0  0  0  0  0  0
   -7.8405    4.4170   -9.5047 N   0  0  0  0  0  0  0  0  0  0  0  0
   -7.9800    5.6416  -10.0479 C   0  0  0  0  0  0  0  0  0  0  0  0
   -8.2579    5.8705  -11.3878 C   0  0  0  0  0  0  0  0  0  0  0  0
   -6.4382    5.0087  -16.6981 C   0  0  0  0  0  0  0  0  0  0  0  0
  1  2  1  0
  2  3  1  0
  3  4  1  0
  4  5  1  0
  5  6  2  0
  5  7  1  0
  7  8  1  1
  8  9  1  0
  9 10  1  0
 10 11  2  0
 11 12  1  0
 12 13  2  0
 13 14  1  0
 14 15  2  0
  7 16  1  0
 16  2  1  0
 15 10  1  0
M  END
>  <inchikey>  (111) 
OSNKQWBJRSQFOE-UHFFFAOYSA-N

>  <alias>  (111) 
CN1CCC(=O)[C@@H](CCc2ccncc2)C1

>  <tags>  (111) 
{'openbind_xx01zvns2b_c1_knitwork_pure', 'fragmenstein_placed'}

>  <HIPPO Pose ID>  (111) 
35779

>  <ref_pdb>  (111) 
71

>  <smiles>  (111) 
C51679-P22

>  <fragmenstein_runtime>  (111) 
1.80313

>  <fragmenstein_outcome>  (111) 
acceptable

>  <fragmenstein_mode>  (111) 
expansion

>  <fragmenstein_error>  (111) 


>  <HIPPO Compound ID>  (111) 
13732

>  <Energy>  (111) 
23.7931

>  <scratch_subdir>  (111) 
/opt/xchem-fragalysis-2/maxwin/BulkDock/SCRATCH/511030/C51679-P22

$$$$
CC(C)Nc1ccnc2ccsc12
     RDKit          3D

 13 14  0  0  0  0  0  0  0  0999 V2000
   -3.0996    6.2035  -20.0284 C   0  0  0  0  0  0  0  0  0  0  0  0
   -3.7566    5.2650  -19.0324 C   0  0  0  0  0  0  0  0  0  0  0  0
   -2.7184    4.8366  -17.9963 C   0  0  0  0  0  0  0  0  0  0  0  0
   -4.8551    5.9668  -18.3650 N   0  0  0  0  0  0  0  0  0  0  0  0
   -6.0256    5.2206  -18.1377 C   0  0  0  0  0  0  0  0  0  0  0  0
   -6.7585    4.6651  -19.1851 C   0  0  0  0  0  0  0  0  0  0  0  0
   -7.9612    4.0294  -18.9286 C   0  0  0  0  0  0  0  0  0  0  0  0
   -8.5080    3.8646  -17.7113 N   0  0  0  0  0  0  0  0  0  0  0  0
   -7.7984    4.3977  -16.6827 C   0  0  0  0  0  0  0  0  0  0  0  0
   -8.2051    4.3764  -15.3199 C   0  0  0  0  0  0  0  0  0  0  0  0
   -7.2914    4.9650  -14.4789 C   0  0  0  0  0  0  0  0  0  0  0  0
   -5.9551    5.5913  -15.3344 S   0  0  0  0  0  0  0  0  0  0  0  0
   -6.5835    5.0604  -16.8533 C   0  0  0  0  0  0  0  0  0  0  0  0
  1  2  1  0
  2  3  1  0
  2  4  1  0
  4  5  1  0
  5  6  2  0
  6  7  1  0
  7  8  2  0
  8  9  1  0
  9 10  1  0
 10 11  2  0
 11 12  1  0
 12 13  1  0
 13  5  1  0
 13  9  2  0
M  END
>  <inchikey>  (112) 
ZTHZBLAVMPXHMP-UHFFFAOYSA-N

>  <alias>  (112) 
CC(C)Nc1ccnc2ccsc12

>  <tags>  (112) 
{'openbind_xx01zvns2b_c1_knitwork_pure', 'fragmenstein_placed'}

>  <HIPPO Pose ID>  (112) 
36023

>  <ref_pdb>  (112) 
71

>  <smiles>  (112) 
C51867-P159

>  <fragmenstein_runtime>  (112) 
0.886279

>  <fragmenstein_outcome>  (112) 
acceptable

>  <fragmenstein_mode>  (112) 
expansion

>  <fragmenstein_error>  (112) 


>  <HIPPO Compound ID>  (112) 
51867

>  <Energy>  (112) 
24.873407

>  <scratch_subdir>  (112) 
/opt/xchem-fragalysis-2/maxwin/BulkDock/SCRATCH/511030/C51867-P159

$$$$
C[C@H](CN)[C@H]1CCCCN1
     RDKit          3D

 10 10  0  0  0  0  0  0  0  0999 V2000
   -5.0301    5.9835  -15.9080 C   0  0  0  0  0  0  0  0  0  0  0  0
   -4.4188    4.9422  -16.8499 C   0  0  2  0  0  0  0  0  0  0  0  0
   -2.9239    4.7134  -16.5427 C   0  0  0  0  0  0  0  0  0  0  0  0
   -2.1331    5.9341  -16.4181 N   0  0  0  0  0  0  0  0  0  0  0  0
   -4.7018    5.0828  -18.3812 C   0  0  1  0  0  0  0  0  0  0  0  0
   -6.2020    5.1591  -18.7063 C   0  0  0  0  0  0  0  0  0  0  0  0
   -6.7527    6.5752  -18.6368 C   0  0  0  0  0  0  0  0  0  0  0  0
   -5.9031    7.5186  -19.4729 C   0  0  0  0  0  0  0  0  0  0  0  0
   -4.4356    7.4392  -19.0703 C   0  0  0  0  0  0  0  0  0  0  0  0
   -3.9229    6.0816  -19.1284 N   0  0  0  0  0  0  0  0  0  0  0  0
  2  1  1  1
  2  3  1  0
  3  4  1  0
  2  5  1  0
  5  6  1  1
  6  7  1  0
  7  8  1  0
  8  9  1  0
  9 10  1  0
 10  5  1  0
M  END
>  <inchikey>  (113) 
KAFUIUWRYRNHGO-UHFFFAOYSA-N

>  <alias>  (113) 
C[C@H](CN)[C@H]1CCCCN1

>  <tags>  (113) 
{'openbind_xx01zvns2b_c1_knitwork_pure', 'fragmenstein_placed'}

>  <HIPPO Pose ID>  (113) 
36086

>  <ref_pdb>  (113) 
71

>  <smiles>  (113) 
C51968-P47

>  <fragmenstein_runtime>  (113) 
0.489061

>  <fragmenstein_outcome>  (113) 
acceptable

>  <fragmenstein_mode>  (113) 
expansion

>  <fragmenstein_error>  (113) 


>  <HIPPO Compound ID>  (113) 
52819

>  <Energy>  (113) 
13.357771

>  <scratch_subdir>  (113) 
/opt/xchem-fragalysis-2/maxwin/BulkDock/SCRATCH/511030/C51968-P47

$$$$
c1cnc2c(C3CCNCC3)cccc2c1
     RDKit          3D

 16 18  0  0  0  0  0  0  0  0999 V2000
   -8.9003    3.8162  -18.4209 C   0  0  0  0  0  0  0  0  0  0  0  0
   -7.7787    4.2377  -19.0949 C   0  0  0  0  0  0  0  0  0  0  0  0
   -6.7275    4.8304  -18.4935 N   0  0  0  0  0  0  0  0  0  0  0  0
   -6.7547    5.0235  -17.1664 C   0  0  0  0  0  0  0  0  0  0  0  0
   -5.7154    5.7118  -16.5259 C   0  0  0  0  0  0  0  0  0  0  0  0
   -4.5677    6.3569  -17.3060 C   0  0  0  0  0  0  0  0  0  0  0  0
   -5.0178    7.3717  -18.3818 C   0  0  0  0  0  0  0  0  0  0  0  0
   -3.8550    7.7134  -19.3118 C   0  0  0  0  0  0  0  0  0  0  0  0
   -3.2394    6.5684  -19.9893 N   0  0  0  0  0  0  0  0  0  0  0  0
   -3.6065    5.2815  -19.3964 C   0  0  0  0  0  0  0  0  0  0  0  0
   -3.5835    5.3243  -17.8751 C   0  0  0  0  0  0  0  0  0  0  0  0
   -5.7268    5.8358  -15.1214 C   0  0  0  0  0  0  0  0  0  0  0  0
   -6.7800    5.3304  -14.3635 C   0  0  0  0  0  0  0  0  0  0  0  0
   -7.8483    4.7133  -14.9988 C   0  0  0  0  0  0  0  0  0  0  0  0
   -7.8440    4.5678  -16.3913 C   0  0  0  0  0  0  0  0  0  0  0  0
   -8.9269    3.9778  -17.0469 C   0  0  0  0  0  0  0  0  0  0  0  0
  1  2  2  0
  2  3  1  0
  3  4  2  0
  4  5  1  0
  5  6  1  0
  6  7  1  0
  7  8  1  0
  8  9  1  0
  9 10  1  0
 10 11  1  0
  5 12  2  0
 12 13  1  0
 13 14  2  0
 14 15  1  0
 15 16  2  0
 16  1  1  0
 15  4  1  0
 11  6  1  0
M  END
>  <inchikey>  (114) 
WIXJSGYIAGAUEQ-UHFFFAOYSA-N

>  <alias>  (114) 
c1cnc2c(C3CCNCC3)cccc2c1

>  <tags>  (114) 
{'openbind_xx01zvns2b_c1_knitwork_pure', 'fragmenstein_placed'}

>  <HIPPO Pose ID>  (114) 
36375

>  <ref_pdb>  (114) 
71

>  <smiles>  (114) 
C7985-P162

>  <fragmenstein_runtime>  (114) 
0.993504

>  <fragmenstein_outcome>  (114) 
acceptable

>  <fragmenstein_mode>  (114) 
expansion

>  <fragmenstein_error>  (114) 


>  <HIPPO Compound ID>  (114) 
2037

>  <Energy>  (114) 
46.857919

>  <scratch_subdir>  (114) 
/opt/xchem-fragalysis-2/maxwin/BulkDock/SCRATCH/511030/C7985-P162

$$$$
CCc1ccncc1NC(=O)c1ccc2scnc2c1
     RDKit          3D

 20 22  0  0  0  0  0  0  0  0999 V2000
   -9.9467    4.0672  -18.0592 C   0  0  0  0  0  0  0  0  0  0  0  0
   -9.0975    4.3443  -16.8302 C   0  0  0  0  0  0  0  0  0  0  0  0
   -7.6586    4.7401  -17.0731 C   0  0  0  0  0  0  0  0  0  0  0  0
   -7.1550    4.8449  -18.3781 C   0  0  0  0  0  0  0  0  0  0  0  0
   -5.8068    5.0856  -18.5885 C   0  0  0  0  0  0  0  0  0  0  0  0
   -4.9015    5.1919  -17.5987 N   0  0  0  0  0  0  0  0  0  0  0  0
   -5.3966    5.0773  -16.3447 C   0  0  0  0  0  0  0  0  0  0  0  0
   -6.7466    4.9059  -16.0225 C   0  0  0  0  0  0  0  0  0  0  0  0
   -7.0872    4.8786  -14.6679 N   0  0  0  0  0  0  0  0  0  0  0  0
   -8.2780    5.5206  -13.9184 C   0  0  0  0  0  0  0  0  0  0  0  0
   -9.2013    6.1074  -14.3261 O   0  0  0  0  0  0  0  0  0  0  0  0
   -8.1719    5.2863  -12.4671 C   0  0  0  0  0  0  0  0  0  0  0  0
   -8.2198    6.3766  -11.5987 C   0  0  0  0  0  0  0  0  0  0  0  0
   -8.1950    6.1768  -10.2168 C   0  0  0  0  0  0  0  0  0  0  0  0
   -8.1442    4.8548   -9.7441 C   0  0  0  0  0  0  0  0  0  0  0  0
   -8.1467    4.2789   -8.1191 S   0  0  0  0  0  0  0  0  0  0  0  0
   -8.0819    2.6692   -8.6974 C   0  0  0  0  0  0  0  0  0  0  0  0
   -8.0386    2.5304  -10.0010 N   0  0  0  0  0  0  0  0  0  0  0  0
   -8.0967    3.7601  -10.6097 C   0  0  0  0  0  0  0  0  0  0  0  0
   -8.1083    3.9735  -11.9967 C   0  0  0  0  0  0  0  0  0  0  0  0
  1  2  1  0
  2  3  1  0
  3  4  2  0
  4  5  1  0
  5  6  2  0
  6  7  1  0
  7  8  2  0
  8  9  1  0
  9 10  1  0
 10 11  2  0
 10 12  1  0
 12 13  2  0
 13 14  1  0
 14 15  2  0
 15 16  1  0
 16 17  1  0
 17 18  2  0
 18 19  1  0
 19 20  2  0
  8  3  1  0
 20 12  1  0
 19 15  1  0
M  END
>  <inchikey>  (115) 
VJFZNUGDNOTAQS-UHFFFAOYSA-N

>  <alias>  (115) 
CCc1ccncc1NC(=O)c1ccc2scnc2c1

>  <tags>  (115) 
{'openbind_xx01zvns2b_c1_knitwork_pure', 'fragmenstein_placed'}

>  <HIPPO Pose ID>  (115) 
36761

>  <ref_pdb>  (115) 
71

>  <smiles>  (115) 
C1481-P84

>  <fragmenstein_runtime>  (115) 
1.715738

>  <fragmenstein_outcome>  (115) 
acceptable

>  <fragmenstein_mode>  (115) 
expansion

>  <fragmenstein_error>  (115) 


>  <HIPPO Compound ID>  (115) 
816

>  <Energy>  (115) 
71.93216

>  <scratch_subdir>  (115) 
/opt/xchem-fragalysis-2/maxwin/BulkDock/SCRATCH/511030/C1481-P84

$$$$
COC(=O)c1cccnc1NC(=O)c1ccc2scnc2c1
     RDKit          3D

 22 24  0  0  0  0  0  0  0  0999 V2000
  -10.6820    4.6990  -18.0096 C   0  0  0  0  0  0  0  0  0  0  0  0
   -9.2858    4.8824  -18.1649 O   0  0  0  0  0  0  0  0  0  0  0  0
   -8.5600    4.2210  -17.2353 C   0  0  0  0  0  0  0  0  0  0  0  0
   -8.9675    3.3663  -16.4705 O   0  0  0  0  0  0  0  0  0  0  0  0
   -7.1734    4.6922  -17.3148 C   0  0  0  0  0  0  0  0  0  0  0  0
   -6.5957    4.8493  -18.5778 C   0  0  0  0  0  0  0  0  0  0  0  0
   -5.2463    5.1422  -18.6849 C   0  0  0  0  0  0  0  0  0  0  0  0
   -4.5066    5.2045  -17.5218 C   0  0  0  0  0  0  0  0  0  0  0  0
   -5.0269    5.0362  -16.2862 N   0  0  0  0  0  0  0  0  0  0  0  0
   -6.3639    4.8290  -16.1931 C   0  0  0  0  0  0  0  0  0  0  0  0
   -6.8234    4.8238  -14.8887 N   0  0  0  0  0  0  0  0  0  0  0  0
   -8.1318    5.3730  -14.2854 C   0  0  0  0  0  0  0  0  0  0  0  0
   -9.0625    5.8476  -14.8034 O   0  0  0  0  0  0  0  0  0  0  0  0
   -8.1229    5.2123  -12.8148 C   0  0  0  0  0  0  0  0  0  0  0  0
   -8.2260    6.3391  -11.9992 C   0  0  0  0  0  0  0  0  0  0  0  0
   -8.2323    6.2045  -10.6067 C   0  0  0  0  0  0  0  0  0  0  0  0
   -8.1521    4.9090  -10.0666 C   0  0  0  0  0  0  0  0  0  0  0  0
   -8.1590    4.4113   -8.4144 S   0  0  0  0  0  0  0  0  0  0  0  0
   -8.0472    2.7775   -8.9133 C   0  0  0  0  0  0  0  0  0  0  0  0
   -7.9774    2.5784  -10.2081 N   0  0  0  0  0  0  0  0  0  0  0  0
   -8.0584    3.7761  -10.8781 C   0  0  0  0  0  0  0  0  0  0  0  0
   -8.0422    3.9264  -12.2753 C   0  0  0  0  0  0  0  0  0  0  0  0
  1  2  1  0
  2  3  1  0
  3  4  2  0
  3  5  1  0
  5  6  2  0
  6  7  1  0
  7  8  2  0
  8  9  1  0
  9 10  2  0
 10 11  1  0
 11 12  1  0
 12 13  2  0
 12 14  1  0
 14 15  2  0
 15 16  1  0
 16 17  2  0
 17 18  1  0
 18 19  1  0
 19 20  2  0
 20 21  1  0
 21 22  2  0
 10  5  1  0
 22 14  1  0
 21 17  1  0
M  END
>  <inchikey>  (116) 
TXOSRWRDMYQKMG-UHFFFAOYSA-N

>  <alias>  (116) 
COC(=O)c1cccnc1NC(=O)c1ccc2scnc2c1

>  <tags>  (116) 
{'openbind_xx01zvns2b_c1_knitwork_pure', 'fragmenstein_placed'}

>  <HIPPO Pose ID>  (116) 
36789

>  <ref_pdb>  (116) 
71

>  <smiles>  (116) 
C1515-P84

>  <fragmenstein_runtime>  (116) 
1.919502

>  <fragmenstein_outcome>  (116) 
acceptable

>  <fragmenstein_mode>  (116) 
expansion

>  <fragmenstein_error>  (116) 


>  <HIPPO Compound ID>  (116) 
2841

>  <Energy>  (116) 
39.270962

>  <scratch_subdir>  (116) 
/opt/xchem-fragalysis-2/maxwin/BulkDock/SCRATCH/511030/C1515-P84

$$$$
CCOc1cccc(NC(=O)c2ccc3scnc3c2)n1
     RDKit          3D

 21 23  0  0  0  0  0  0  0  0999 V2000
   -2.0048    5.0606  -18.7101 C   0  0  0  0  0  0  0  0  0  0  0  0
   -3.1899    5.1083  -17.7572 C   0  0  0  0  0  0  0  0  0  0  0  0
   -4.3430    5.1741  -18.5770 O   0  0  0  0  0  0  0  0  0  0  0  0
   -5.5570    5.0123  -17.9376 C   0  0  0  0  0  0  0  0  0  0  0  0
   -6.6296    4.9316  -18.8067 C   0  0  0  0  0  0  0  0  0  0  0  0
   -7.9025    4.7671  -18.2995 C   0  0  0  0  0  0  0  0  0  0  0  0
   -8.0587    4.7406  -16.9284 C   0  0  0  0  0  0  0  0  0  0  0  0
   -6.9333    4.8669  -16.1191 C   0  0  0  0  0  0  0  0  0  0  0  0
   -7.1270    4.8898  -14.7521 N   0  0  0  0  0  0  0  0  0  0  0  0
   -8.3681    5.2800  -13.9220 C   0  0  0  0  0  0  0  0  0  0  0  0
   -9.4463    5.5698  -14.2630 O   0  0  0  0  0  0  0  0  0  0  0  0
   -8.1188    5.1582  -12.4815 C   0  0  0  0  0  0  0  0  0  0  0  0
   -8.1416    6.2964  -11.6779 C   0  0  0  0  0  0  0  0  0  0  0  0
   -8.0958    6.1694  -10.2879 C   0  0  0  0  0  0  0  0  0  0  0  0
   -8.0629    4.8727   -9.7456 C   0  0  0  0  0  0  0  0  0  0  0  0
   -8.0754    4.3842   -8.0921 S   0  0  0  0  0  0  0  0  0  0  0  0
   -8.0403    2.7449   -8.5832 C   0  0  0  0  0  0  0  0  0  0  0  0
   -8.0014    2.5352   -9.8766 N   0  0  0  0  0  0  0  0  0  0  0  0
   -8.0342    3.7318  -10.5510 C   0  0  0  0  0  0  0  0  0  0  0  0
   -8.0522    3.8713  -11.9463 C   0  0  0  0  0  0  0  0  0  0  0  0
   -5.6646    4.9724  -16.5902 N   0  0  0  0  0  0  0  0  0  0  0  0
  1  2  1  0
  2  3  1  0
  3  4  1  0
  4  5  2  0
  5  6  1  0
  6  7  2  0
  7  8  1  0
  8  9  1  0
  9 10  1  0
 10 11  2  0
 10 12  1  0
 12 13  2  0
 13 14  1  0
 14 15  2  0
 15 16  1  0
 16 17  1  0
 17 18  2  0
 18 19  1  0
 19 20  2  0
  8 21  2  0
 21  4  1  0
 20 12  1  0
 19 15  1  0
M  END
>  <inchikey>  (117) 
OYCFWUYSERYFNH-UHFFFAOYSA-N

>  <alias>  (117) 
CCOc1cccc(NC(=O)c2ccc3scnc3c2)n1

>  <tags>  (117) 
{'openbind_xx01zvns2b_c1_knitwork_pure', 'fragmenstein_placed'}

>  <HIPPO Pose ID>  (117) 
36790

>  <ref_pdb>  (117) 
71

>  <smiles>  (117) 
C1518-P84

>  <fragmenstein_runtime>  (117) 
3.307233

>  <fragmenstein_outcome>  (117) 
acceptable

>  <fragmenstein_mode>  (117) 
expansion

>  <fragmenstein_error>  (117) 


>  <HIPPO Compound ID>  (117) 
47575

>  <Energy>  (117) 
-1.512023

>  <scratch_subdir>  (117) 
/opt/xchem-fragalysis-2/maxwin/BulkDock/SCRATCH/511030/C1518-P84

$$$$
Cc1cccc(NC(=O)c2ccc3scnc3c2)n1
     RDKit          3D

 19 21  0  0  0  0  0  0  0  0999 V2000
   -3.9627    5.2751  -18.0591 C   0  0  0  0  0  0  0  0  0  0  0  0
   -5.3924    5.0755  -17.6660 C   0  0  0  0  0  0  0  0  0  0  0  0
   -6.3799    5.0184  -18.6409 C   0  0  0  0  0  0  0  0  0  0  0  0
   -7.6998    4.8434  -18.2507 C   0  0  0  0  0  0  0  0  0  0  0  0
   -8.0004    4.7792  -16.8993 C   0  0  0  0  0  0  0  0  0  0  0  0
   -6.9614    4.8710  -15.9887 C   0  0  0  0  0  0  0  0  0  0  0  0
   -7.2190    4.8630  -14.6374 N   0  0  0  0  0  0  0  0  0  0  0  0
   -8.4901    5.2432  -13.8603 C   0  0  0  0  0  0  0  0  0  0  0  0
   -9.5468    5.5507  -14.2438 O   0  0  0  0  0  0  0  0  0  0  0  0
   -8.2658    5.1258  -12.4144 C   0  0  0  0  0  0  0  0  0  0  0  0
   -8.2246    6.2752  -11.6280 C   0  0  0  0  0  0  0  0  0  0  0  0
   -8.1342    6.1644  -10.2392 C   0  0  0  0  0  0  0  0  0  0  0  0
   -8.1191    4.8740   -9.6811 C   0  0  0  0  0  0  0  0  0  0  0  0
   -8.0738    4.4066   -8.0219 S   0  0  0  0  0  0  0  0  0  0  0  0
   -8.1057    2.7609   -8.4914 C   0  0  0  0  0  0  0  0  0  0  0  0
   -8.1464    2.5351   -9.7813 N   0  0  0  0  0  0  0  0  0  0  0  0
   -8.1574    3.7226  -10.4710 C   0  0  0  0  0  0  0  0  0  0  0  0
   -8.2148    3.8446  -11.8662 C   0  0  0  0  0  0  0  0  0  0  0  0
   -5.6638    4.9898  -16.3429 N   0  0  0  0  0  0  0  0  0  0  0  0
  1  2  1  0
  2  3  2  0
  3  4  1  0
  4  5  2  0
  5  6  1  0
  6  7  1  0
  7  8  1  0
  8  9  2  0
  8 10  1  0
 10 11  2  0
 11 12  1  0
 12 13  2  0
 13 14  1  0
 14 15  1  0
 15 16  2  0
 16 17  1  0
 17 18  2  0
  6 19  2  0
 19  2  1  0
 18 10  1  0
 17 13  1  0
M  END
>  <inchikey>  (118) 
HQXQWTVQACUTOW-UHFFFAOYSA-N

>  <alias>  (118) 
Cc1cccc(NC(=O)c2ccc3scnc3c2)n1

>  <tags>  (118) 
{'openbind_xx01zvns2b_c1_knitwork_pure', 'fragmenstein_placed'}

>  <HIPPO Pose ID>  (118) 
36792

>  <ref_pdb>  (118) 
71

>  <smiles>  (118) 
C1520-P84

>  <fragmenstein_runtime>  (118) 
2.603017

>  <fragmenstein_outcome>  (118) 
acceptable

>  <fragmenstein_mode>  (118) 
expansion

>  <fragmenstein_error>  (118) 


>  <HIPPO Compound ID>  (118) 
1996

>  <Energy>  (118) 
13.467583

>  <scratch_subdir>  (118) 
/opt/xchem-fragalysis-2/maxwin/BulkDock/SCRATCH/511030/C1520-P84

$$$$
O=C(Nc1cc(Cl)ccn1)c1ccc2scnc2c1
     RDKit          3D

 19 21  0  0  0  0  0  0  0  0999 V2000
   -9.4751    5.7222  -13.9981 O   0  0  0  0  0  0  0  0  0  0  0  0
   -8.4019    5.4733  -13.6158 C   0  0  0  0  0  0  0  0  0  0  0  0
   -7.1041    5.1933  -14.3956 N   0  0  0  0  0  0  0  0  0  0  0  0
   -6.8828    5.0722  -15.7461 C   0  0  0  0  0  0  0  0  0  0  0  0
   -7.9645    4.8107  -16.5554 C   0  0  0  0  0  0  0  0  0  0  0  0
   -7.7437    4.6661  -17.9067 C   0  0  0  0  0  0  0  0  0  0  0  0
   -9.0928    4.2817  -18.8699 Cl  0  0  0  0  0  0  0  0  0  0  0  0
   -6.4756    4.8143  -18.4357 C   0  0  0  0  0  0  0  0  0  0  0  0
   -5.4491    5.0588  -17.5438 C   0  0  0  0  0  0  0  0  0  0  0  0
   -5.6190    5.1750  -16.2041 N   0  0  0  0  0  0  0  0  0  0  0  0
   -8.1939    5.2876  -12.1811 C   0  0  0  0  0  0  0  0  0  0  0  0
   -8.1288    6.3896  -11.3356 C   0  0  0  0  0  0  0  0  0  0  0  0
   -8.0696    6.1931   -9.9560 C   0  0  0  0  0  0  0  0  0  0  0  0
   -8.1084    4.8719   -9.4734 C   0  0  0  0  0  0  0  0  0  0  0  0
   -8.1064    4.3095   -7.8441 S   0  0  0  0  0  0  0  0  0  0  0  0
   -8.1822    2.6948   -8.4076 C   0  0  0  0  0  0  0  0  0  0  0  0
   -8.2180    2.5437   -9.7086 N   0  0  0  0  0  0  0  0  0  0  0  0
   -8.1740    3.7688  -10.3272 C   0  0  0  0  0  0  0  0  0  0  0  0
   -8.2033    3.9733  -11.7114 C   0  0  0  0  0  0  0  0  0  0  0  0
  1  2  2  0
  2  3  1  0
  3  4  1  0
  4  5  2  0
  5  6  1  0
  6  7  1  0
  6  8  2  0
  8  9  1  0
  9 10  2  0
  2 11  1  0
 11 12  2  0
 12 13  1  0
 13 14  2  0
 14 15  1  0
 15 16  1  0
 16 17  2  0
 17 18  1  0
 18 19  2  0
 10  4  1  0
 19 11  1  0
 18 14  1  0
M  END
>  <inchikey>  (119) 
DXYZEBCHUORQJL-UHFFFAOYSA-N

>  <alias>  (119) 
O=C(Nc1cc(Cl)ccn1)c1ccc2scnc2c1

>  <tags>  (119) 
{'openbind_xx01zvns2b_c1_knitwork_pure', 'fragmenstein_placed'}

>  <HIPPO Pose ID>  (119) 
36794

>  <ref_pdb>  (119) 
71

>  <smiles>  (119) 
C1523-P84

>  <fragmenstein_runtime>  (119) 
2.172763

>  <fragmenstein_outcome>  (119) 
acceptable

>  <fragmenstein_mode>  (119) 
expansion

>  <fragmenstein_error>  (119) 


>  <HIPPO Compound ID>  (119) 
8147

>  <Energy>  (119) 
-5.509735

>  <scratch_subdir>  (119) 
/opt/xchem-fragalysis-2/maxwin/BulkDock/SCRATCH/511030/C1523-P84

$$$$
O=C(Nc1cccc(OC(F)(F)F)n1)c1ccc2scnc2c1
     RDKit          3D

 23 25  0  0  0  0  0  0  0  0999 V2000
   -9.4445    5.1208  -14.4035 O   0  0  0  0  0  0  0  0  0  0  0  0
   -8.3572    5.0907  -13.9856 C   0  0  0  0  0  0  0  0  0  0  0  0
   -7.0081    4.9973  -14.7200 N   0  0  0  0  0  0  0  0  0  0  0  0
   -6.7187    5.0157  -16.0681 C   0  0  0  0  0  0  0  0  0  0  0  0
   -7.7100    4.7668  -17.0050 C   0  0  0  0  0  0  0  0  0  0  0  0
   -7.3847    4.8508  -18.3519 C   0  0  0  0  0  0  0  0  0  0  0  0
   -6.0961    5.2180  -18.7168 C   0  0  0  0  0  0  0  0  0  0  0  0
   -5.1650    5.4177  -17.7136 C   0  0  0  0  0  0  0  0  0  0  0  0
   -3.9646    5.9937  -18.0054 O   0  0  0  0  0  0  0  0  0  0  0  0
   -3.0184    5.0336  -18.4154 C   0  0  0  0  0  0  0  0  0  0  0  0
   -3.1446    4.7860  -19.7473 F   0  0  0  0  0  0  0  0  0  0  0  0
   -1.7800    5.5420  -18.2215 F   0  0  0  0  0  0  0  0  0  0  0  0
   -3.1043    3.8696  -17.7423 F   0  0  0  0  0  0  0  0  0  0  0  0
   -5.4436    5.3151  -16.3981 N   0  0  0  0  0  0  0  0  0  0  0  0
   -8.1648    5.0349  -12.5309 C   0  0  0  0  0  0  0  0  0  0  0  0
   -8.0135    6.2115  -11.8012 C   0  0  0  0  0  0  0  0  0  0  0  0
   -7.9459    6.1594  -10.4062 C   0  0  0  0  0  0  0  0  0  0  0  0
   -8.0503    4.9016   -9.7844 C   0  0  0  0  0  0  0  0  0  0  0  0
   -8.0330    4.5101   -8.1047 S   0  0  0  0  0  0  0  0  0  0  0  0
   -8.2079    2.8525   -8.4949 C   0  0  0  0  0  0  0  0  0  0  0  0
   -8.2986    2.5724   -9.7714 N   0  0  0  0  0  0  0  0  0  0  0  0
   -8.1996    3.7223  -10.5178 C   0  0  0  0  0  0  0  0  0  0  0  0
   -8.2464    3.7851  -11.9176 C   0  0  0  0  0  0  0  0  0  0  0  0
  1  2  2  0
  2  3  1  0
  3  4  1  0
  4  5  2  0
  5  6  1  0
  6  7  2  0
  7  8  1  0
  8  9  1  0
  9 10  1  0
 10 11  1  0
 10 12  1  0
 10 13  1  0
  8 14  2  0
  2 15  1  0
 15 16  2  0
 16 17  1  0
 17 18  2  0
 18 19  1  0
 19 20  1  0
 20 21  2  0
 21 22  1  0
 22 23  2  0
 14  4  1  0
 23 15  1  0
 22 18  1  0
M  END
>  <inchikey>  (120) 
YRWYPNPZZQSCQF-UHFFFAOYSA-N

>  <alias>  (120) 
O=C(Nc1cccc(OC(F)(F)F)n1)c1ccc2scnc2c1

>  <tags>  (120) 
{'openbind_xx01zvns2b_c1_knitwork_pure', 'fragmenstein_placed'}

>  <HIPPO Pose ID>  (120) 
36795

>  <ref_pdb>  (120) 
71

>  <smiles>  (120) 
C1524-P84

>  <fragmenstein_runtime>  (120) 
4.677752

>  <fragmenstein_outcome>  (120) 
acceptable

>  <fragmenstein_mode>  (120) 
expansion

>  <fragmenstein_error>  (120) 


>  <HIPPO Compound ID>  (120) 
55564

>  <Energy>  (120) 
-13.091709

>  <scratch_subdir>  (120) 
/opt/xchem-fragalysis-2/maxwin/BulkDock/SCRATCH/511030/C1524-P84

$$$$
CC(C)Oc1cc(NC(=O)c2ccc3scnc3c2)ccn1
     RDKit          3D

 22 24  0  0  0  0  0  0  0  0999 V2000
   -2.3934    4.6540  -18.8661 C   0  0  0  0  0  0  0  0  0  0  0  0
   -2.5591    5.8452  -17.9410 C   0  0  0  0  0  0  0  0  0  0  0  0
   -2.0801    5.5747  -16.5196 C   0  0  0  0  0  0  0  0  0  0  0  0
   -3.8596    6.4330  -17.9972 O   0  0  0  0  0  0  0  0  0  0  0  0
   -4.9311    5.6555  -17.6556 C   0  0  0  0  0  0  0  0  0  0  0  0
   -5.3082    5.5678  -16.3285 C   0  0  0  0  0  0  0  0  0  0  0  0
   -6.5871    5.1114  -16.0385 C   0  0  0  0  0  0  0  0  0  0  0  0
   -6.9743    5.0470  -14.7043 N   0  0  0  0  0  0  0  0  0  0  0  0
   -8.3719    5.1231  -14.0641 C   0  0  0  0  0  0  0  0  0  0  0  0
   -9.4257    5.1747  -14.5560 O   0  0  0  0  0  0  0  0  0  0  0  0
   -8.2521    5.0684  -12.5991 C   0  0  0  0  0  0  0  0  0  0  0  0
   -8.2009    6.2473  -11.8584 C   0  0  0  0  0  0  0  0  0  0  0  0
   -8.1325    6.1899  -10.4633 C   0  0  0  0  0  0  0  0  0  0  0  0
   -8.1322    4.9226   -9.8520 C   0  0  0  0  0  0  0  0  0  0  0  0
   -8.0865    4.5192   -8.1752 S   0  0  0  0  0  0  0  0  0  0  0  0
   -8.1296    2.8563   -8.5797 C   0  0  0  0  0  0  0  0  0  0  0  0
   -8.1740    2.5810   -9.8600 N   0  0  0  0  0  0  0  0  0  0  0  0
   -8.1806    3.7414  -10.5961 C   0  0  0  0  0  0  0  0  0  0  0  0
   -8.2300    3.8112  -11.9960 C   0  0  0  0  0  0  0  0  0  0  0  0
   -7.4416    4.7500  -17.0712 C   0  0  0  0  0  0  0  0  0  0  0  0
   -6.9545    4.8328  -18.3660 C   0  0  0  0  0  0  0  0  0  0  0  0
   -5.7160    5.2843  -18.6788 N   0  0  0  0  0  0  0  0  0  0  0  0
  1  2  1  0
  2  3  1  0
  2  4  1  0
  4  5  1  0
  5  6  2  0
  6  7  1  0
  7  8  1  0
  8  9  1  0
  9 10  2  0
  9 11  1  0
 11 12  2  0
 12 13  1  0
 13 14  2  0
 14 15  1  0
 15 16  1  0
 16 17  2  0
 17 18  1  0
 18 19  2  0
  7 20  2  0
 20 21  1  0
 21 22  2  0
 22  5  1  0
 19 11  1  0
 18 14  1  0
M  END
>  <inchikey>  (121) 
NFMGUSSCWYFFBP-UHFFFAOYSA-N

>  <alias>  (121) 
CC(C)Oc1cc(NC(=O)c2ccc3scnc3c2)ccn1

>  <tags>  (121) 
{'openbind_xx01zvns2b_c1_knitwork_pure', 'fragmenstein_placed'}

>  <HIPPO Pose ID>  (121) 
36798

>  <ref_pdb>  (121) 
71

>  <smiles>  (121) 
C1527-P84

>  <fragmenstein_runtime>  (121) 
3.277872

>  <fragmenstein_outcome>  (121) 
acceptable

>  <fragmenstein_mode>  (121) 
expansion

>  <fragmenstein_error>  (121) 


>  <HIPPO Compound ID>  (121) 
48120

>  <Energy>  (121) 
37.178398

>  <scratch_subdir>  (121) 
/opt/xchem-fragalysis-2/maxwin/BulkDock/SCRATCH/511030/C1527-P84

$$$$
Cn1ncc2cc(CO)c(-c3cccnc3)nc21
     RDKit          3D

 18 20  0  0  0  0  0  0  0  0999 V2000
   -2.9950    6.0113  -16.0528 C   0  0  0  0  0  0  0  0  0  0  0  0
   -3.8668    5.6342  -17.1358 N   0  0  0  0  0  0  0  0  0  0  0  0
   -3.3965    5.3747  -18.3770 N   0  0  0  0  0  0  0  0  0  0  0  0
   -4.5054    5.0224  -19.0472 C   0  0  0  0  0  0  0  0  0  0  0  0
   -5.6689    5.0598  -18.2517 C   0  0  0  0  0  0  0  0  0  0  0  0
   -7.0346    4.7947  -18.3677 C   0  0  0  0  0  0  0  0  0  0  0  0
   -7.8311    4.9433  -17.2099 C   0  0  0  0  0  0  0  0  0  0  0  0
   -9.2765    4.5658  -17.3108 C   0  0  0  0  0  0  0  0  0  0  0  0
   -9.4164    3.2270  -16.8995 O   0  0  0  0  0  0  0  0  0  0  0  0
   -7.2286    5.3656  -16.0098 C   0  0  0  0  0  0  0  0  0  0  0  0
   -7.8350    5.4811  -14.6778 C   0  0  0  0  0  0  0  0  0  0  0  0
   -7.7317    6.6823  -13.9523 C   0  0  0  0  0  0  0  0  0  0  0  0
   -8.0353    6.7348  -12.5952 C   0  0  0  0  0  0  0  0  0  0  0  0
   -8.4193    5.5633  -11.9801 C   0  0  0  0  0  0  0  0  0  0  0  0
   -8.5592    4.3955  -12.6344 N   0  0  0  0  0  0  0  0  0  0  0  0
   -8.2588    4.3740  -13.9560 C   0  0  0  0  0  0  0  0  0  0  0  0
   -5.9216    5.6865  -15.9135 N   0  0  0  0  0  0  0  0  0  0  0  0
   -5.2130    5.4824  -17.0231 C   0  0  0  0  0  0  0  0  0  0  0  0
  1  2  1  0
  2  3  1  0
  3  4  2  0
  4  5  1  0
  5  6  2  0
  6  7  1  0
  7  8  1  0
  8  9  1  0
  7 10  2  0
 10 11  1  0
 11 12  2  0
 12 13  1  0
 13 14  2  0
 14 15  1  0
 15 16  2  0
 10 17  1  0
 17 18  2  0
 18  2  1  0
 18  5  1  0
 16 11  1  0
M  END
>  <inchikey>  (122) 
UCRPUKBLVORKKE-UHFFFAOYSA-N

>  <alias>  (122) 
Cn1ncc2cc(CO)c(-c3cccnc3)nc21

>  <tags>  (122) 
{'openbind_xx01zvns2b_c1_knitwork_pure', 'fragmenstein_placed'}

>  <HIPPO Pose ID>  (122) 
37091

>  <ref_pdb>  (122) 
71

>  <smiles>  (122) 
C52677-P34

>  <fragmenstein_runtime>  (122) 
1.854852

>  <fragmenstein_outcome>  (122) 
acceptable

>  <fragmenstein_mode>  (122) 
expansion

>  <fragmenstein_error>  (122) 


>  <HIPPO Compound ID>  (122) 
53342

>  <Energy>  (122) 
76.546203

>  <scratch_subdir>  (122) 
/opt/xchem-fragalysis-2/maxwin/BulkDock/SCRATCH/511030/C52677-P34

$$$$
CC(C)n1cnc(C(=O)Nc2ccc3c(c2)CNC3)c1
     RDKit          3D

 20 22  0  0  0  0  0  0  0  0999 V2000
   -7.8300    4.4056  -19.0343 C   0  0  0  0  0  0  0  0  0  0  0  0
   -6.7788    4.6708  -17.9579 C   0  0  0  0  0  0  0  0  0  0  0  0
   -5.8365    5.7908  -18.4093 C   0  0  0  0  0  0  0  0  0  0  0  0
   -7.3527    4.8997  -16.6390 N   0  0  0  0  0  0  0  0  0  0  0  0
   -8.5627    4.4338  -16.1984 C   0  0  0  0  0  0  0  0  0  0  0  0
   -8.7394    4.6653  -14.9188 N   0  0  0  0  0  0  0  0  0  0  0  0
   -7.5992    5.3244  -14.5089 C   0  0  0  0  0  0  0  0  0  0  0  0
   -7.3710    5.6689  -13.1090 C   0  0  0  0  0  0  0  0  0  0  0  0
   -6.8456    6.6580  -12.7780 O   0  0  0  0  0  0  0  0  0  0  0  0
   -7.9343    4.5049  -12.2670 N   0  0  0  0  0  0  0  0  0  0  0  0
   -8.0508    4.3610  -10.8915 C   0  0  0  0  0  0  0  0  0  0  0  0
   -7.7718    5.4182  -10.0135 C   0  0  0  0  0  0  0  0  0  0  0  0
   -7.9240    5.2558   -8.6327 C   0  0  0  0  0  0  0  0  0  0  0  0
   -8.3345    4.0235   -8.1616 C   0  0  0  0  0  0  0  0  0  0  0  0
   -8.5738    2.9651   -9.0338 C   0  0  0  0  0  0  0  0  0  0  0  0
   -8.4555    3.1175  -10.4013 C   0  0  0  0  0  0  0  0  0  0  0  0
   -8.8847    1.7483   -8.2330 C   0  0  0  0  0  0  0  0  0  0  0  0
   -9.3109    2.2759   -6.9113 N   0  0  0  0  0  0  0  0  0  0  0  0
   -8.5635    3.5506   -6.7632 C   0  0  0  0  0  0  0  0  0  0  0  0
   -6.7382    5.4989  -15.5713 C   0  0  0  0  0  0  0  0  0  0  0  0
  1  2  1  0
  2  3  1  0
  2  4  1  0
  4  5  1  0
  5  6  2  0
  6  7  1  0
  7  8  1  0
  8  9  2  0
  8 10  1  0
 10 11  1  0
 11 12  2  0
 12 13  1  0
 13 14  2  0
 14 15  1  0
 15 16  2  0
 15 17  1  0
 17 18  1  0
 18 19  1  0
  7 20  2  0
 20  4  1  0
 16 11  1  0
 19 14  1  0
M  END
>  <inchikey>  (123) 
KQUFXOSHDZXUDP-UHFFFAOYSA-N

>  <alias>  (123) 
CC(C)n1cnc(C(=O)Nc2ccc3c(c2)CNC3)c1

>  <tags>  (123) 
{'openbind_xx01zvns2b_c1_knitwork_pure', 'fragmenstein_placed'}

>  <HIPPO Pose ID>  (123) 
37418

>  <ref_pdb>  (123) 
71

>  <smiles>  (123) 
C5568-P44

>  <fragmenstein_runtime>  (123) 
5.624393

>  <fragmenstein_outcome>  (123) 
acceptable

>  <fragmenstein_mode>  (123) 
expansion

>  <fragmenstein_error>  (123) 


>  <HIPPO Compound ID>  (123) 
3936

>  <Energy>  (123) 
59.182392

>  <scratch_subdir>  (123) 
/opt/xchem-fragalysis-2/maxwin/BulkDock/SCRATCH/511030/C5568-P44

$$$$
O[C@H](c1ccncn1)c1c[nH]cn1
     RDKit          3D

 13 14  0  0  0  0  0  0  0  0999 V2000
   -4.4314    6.2833  -16.9763 O   0  0  0  0  0  0  0  0  0  0  0  0
   -5.0145    5.4447  -15.9692 C   0  0  2  0  0  0  0  0  0  0  0  0
   -6.4706    5.1506  -16.3003 C   0  0  0  0  0  0  0  0  0  0  0  0
   -7.3981    4.7046  -15.3776 C   0  0  0  0  0  0  0  0  0  0  0  0
   -8.6302    4.3479  -15.8732 C   0  0  0  0  0  0  0  0  0  0  0  0
   -8.9512    4.3609  -17.1781 N   0  0  0  0  0  0  0  0  0  0  0  0
   -7.9926    4.7969  -18.0019 C   0  0  0  0  0  0  0  0  0  0  0  0
   -6.7696    5.2163  -17.6309 N   0  0  0  0  0  0  0  0  0  0  0  0
   -4.8468    6.0363  -14.6043 C   0  0  0  0  0  0  0  0  0  0  0  0
   -3.7517    5.8923  -13.7685 C   0  0  0  0  0  0  0  0  0  0  0  0
   -4.0822    6.5398  -12.6145 N   0  0  0  0  0  0  0  0  0  0  0  0
   -5.3277    7.0675  -12.7849 C   0  0  0  0  0  0  0  0  0  0  0  0
   -5.8060    6.8101  -13.9777 N   0  0  0  0  0  0  0  0  0  0  0  0
  2  1  1  6
  2  3  1  0
  3  4  2  0
  4  5  1  0
  5  6  2  0
  6  7  1  0
  7  8  2  0
  2  9  1  0
  9 10  2  0
 10 11  1  0
 11 12  1  0
 12 13  2  0
  8  3  1  0
 13  9  1  0
M  END
>  <inchikey>  (124) 
AGIKKIQZIFEICJ-UHFFFAOYSA-N

>  <alias>  (124) 
O[C@H](c1ccncn1)c1c[nH]cn1

>  <tags>  (124) 
{'openbind_xx01zvns2b_c1_knitwork_pure', 'fragmenstein_placed'}

>  <HIPPO Pose ID>  (124) 
37700

>  <ref_pdb>  (124) 
71

>  <smiles>  (124) 
C53216-P91

>  <fragmenstein_runtime>  (124) 
1.975435

>  <fragmenstein_outcome>  (124) 
acceptable

>  <fragmenstein_mode>  (124) 
expansion

>  <fragmenstein_error>  (124) 


>  <HIPPO Compound ID>  (124) 
11558

>  <Energy>  (124) 
43.476799

>  <scratch_subdir>  (124) 
/opt/xchem-fragalysis-2/maxwin/BulkDock/SCRATCH/511030/C53216-P91

$$$$
Clc1cnccc1NC[C@@H]1CCCNC1
     RDKit          3D

 15 16  0  0  0  0  0  0  0  0999 V2000
   -4.1433    5.1848  -15.4051 Cl  0  0  0  0  0  0  0  0  0  0  0  0
   -5.4454    5.0596  -16.5241 C   0  0  0  0  0  0  0  0  0  0  0  0
   -5.2453    5.4169  -17.8443 C   0  0  0  0  0  0  0  0  0  0  0  0
   -6.2086    5.3652  -18.7828 N   0  0  0  0  0  0  0  0  0  0  0  0
   -7.4248    4.9249  -18.3831 C   0  0  0  0  0  0  0  0  0  0  0  0
   -7.7281    4.5673  -17.0806 C   0  0  0  0  0  0  0  0  0  0  0  0
   -6.7141    4.6137  -16.1280 C   0  0  0  0  0  0  0  0  0  0  0  0
   -6.9834    4.2477  -14.7965 N   0  0  0  0  0  0  0  0  0  0  0  0
   -7.7469    5.2299  -14.0252 C   0  0  0  0  0  0  0  0  0  0  0  0
   -7.4162    5.0476  -12.5345 C   0  0  2  0  0  0  0  0  0  0  0  0
   -7.9456    3.7132  -11.9921 C   0  0  0  0  0  0  0  0  0  0  0  0
   -7.6517    3.5897  -10.5020 C   0  0  0  0  0  0  0  0  0  0  0  0
   -8.1219    4.8186   -9.7307 C   0  0  0  0  0  0  0  0  0  0  0  0
   -7.6035    6.0762  -10.2832 N   0  0  0  0  0  0  0  0  0  0  0  0
   -7.9537    6.2142  -11.7001 C   0  0  0  0  0  0  0  0  0  0  0  0
  1  2  1  0
  2  3  2  0
  3  4  1  0
  4  5  2  0
  5  6  1  0
  6  7  2  0
  7  8  1  0
  8  9  1  0
 10  9  1  6
 10 11  1  0
 11 12  1  0
 12 13  1  0
 13 14  1  0
 14 15  1  0
  7  2  1  0
 15 10  1  0
M  END
>  <inchikey>  (125) 
JKVPNTADLLBXGG-UHFFFAOYSA-N

>  <alias>  (125) 
Clc1cnccc1NC[C@@H]1CCCNC1

>  <tags>  (125) 
{'openbind_xx01zvns2b_c1_knitwork_pure', 'fragmenstein_placed'}

>  <HIPPO Pose ID>  (125) 
37763

>  <ref_pdb>  (125) 
71

>  <smiles>  (125) 
C9114-P84

>  <fragmenstein_runtime>  (125) 
1.848784

>  <fragmenstein_outcome>  (125) 
acceptable

>  <fragmenstein_mode>  (125) 
expansion

>  <fragmenstein_error>  (125) 


>  <HIPPO Compound ID>  (125) 
3692

>  <Energy>  (125) 
45.157854

>  <scratch_subdir>  (125) 
/opt/xchem-fragalysis-2/maxwin/BulkDock/SCRATCH/511030/C9114-P84

$$$$
N#Cc1cnccc1NC[C@@H]1CCCNC1
     RDKit          3D

 16 17  0  0  0  0  0  0  0  0999 V2000
   -9.9760    3.8278  -17.7387 N   0  0  0  0  0  0  0  0  0  0  0  0
   -8.8670    4.1361  -17.5976 C   0  0  0  0  0  0  0  0  0  0  0  0
   -7.5069    4.5357  -17.4371 C   0  0  0  0  0  0  0  0  0  0  0  0
   -6.7592    4.8492  -18.5656 C   0  0  0  0  0  0  0  0  0  0  0  0
   -5.4804    5.3013  -18.5373 N   0  0  0  0  0  0  0  0  0  0  0  0
   -4.9287    5.4443  -17.3199 C   0  0  0  0  0  0  0  0  0  0  0  0
   -5.5870    5.1468  -16.1383 C   0  0  0  0  0  0  0  0  0  0  0  0
   -6.8946    4.6504  -16.1839 C   0  0  0  0  0  0  0  0  0  0  0  0
   -7.5293    4.3164  -14.9825 N   0  0  0  0  0  0  0  0  0  0  0  0
   -7.9033    5.4072  -14.0874 C   0  0  0  0  0  0  0  0  0  0  0  0
   -7.4425    5.0896  -12.6567 C   0  0  2  0  0  0  0  0  0  0  0  0
   -8.0299    3.7714  -12.1318 C   0  0  0  0  0  0  0  0  0  0  0  0
   -7.6878    3.5596  -10.6615 C   0  0  0  0  0  0  0  0  0  0  0  0
   -8.0295    4.7836   -9.8189 C   0  0  0  0  0  0  0  0  0  0  0  0
   -7.4077    6.0077  -10.3378 N   0  0  0  0  0  0  0  0  0  0  0  0
   -7.8142    6.2505  -11.7232 C   0  0  0  0  0  0  0  0  0  0  0  0
  1  2  3  0
  2  3  1  0
  3  4  2  0
  4  5  1  0
  5  6  2  0
  6  7  1  0
  7  8  2  0
  8  9  1  0
  9 10  1  0
 11 10  1  6
 11 12  1  0
 12 13  1  0
 13 14  1  0
 14 15  1  0
 15 16  1  0
  8  3  1  0
 16 11  1  0
M  END
>  <inchikey>  (126) 
NAAQVNIAOFGIQG-UHFFFAOYSA-N

>  <alias>  (126) 
N#Cc1cnccc1NC[C@@H]1CCCNC1

>  <tags>  (126) 
{'openbind_xx01zvns2b_c1_knitwork_pure', 'fragmenstein_placed'}

>  <HIPPO Pose ID>  (126) 
37764

>  <ref_pdb>  (126) 
71

>  <smiles>  (126) 
C9115-P84

>  <fragmenstein_runtime>  (126) 
1.424533

>  <fragmenstein_outcome>  (126) 
acceptable

>  <fragmenstein_mode>  (126) 
expansion

>  <fragmenstein_error>  (126) 


>  <HIPPO Compound ID>  (126) 
5363

>  <Energy>  (126) 
41.098744

>  <scratch_subdir>  (126) 
/opt/xchem-fragalysis-2/maxwin/BulkDock/SCRATCH/511030/C9115-P84

$$$$
O=S(=O)(NCCCc1ccccn1)c1cnn2c1CNCC2
     RDKit          3D

 22 24  0  0  0  0  0  0  0  0999 V2000
   -8.5986    6.8576  -11.9722 O   0  0  0  0  0  0  0  0  0  0  0  0
   -7.8157    5.6613  -11.7409 S   0  0  0  0  0  0  0  0  0  0  0  0
   -6.3792    5.6638  -11.8981 O   0  0  0  0  0  0  0  0  0  0  0  0
   -8.4495    4.4541  -12.7285 N   0  0  0  0  0  0  0  0  0  0  0  0
   -8.7012    4.8152  -14.1419 C   0  0  0  0  0  0  0  0  0  0  0  0
   -7.4537    4.6481  -14.9803 C   0  0  0  0  0  0  0  0  0  0  0  0
   -7.7406    4.7347  -16.4790 C   0  0  0  0  0  0  0  0  0  0  0  0
   -6.5277    4.9661  -17.3427 C   0  0  0  0  0  0  0  0  0  0  0  0
   -5.2206    4.8280  -16.8817 C   0  0  0  0  0  0  0  0  0  0  0  0
   -4.1602    5.0678  -17.7510 C   0  0  0  0  0  0  0  0  0  0  0  0
   -4.4262    5.4179  -19.0656 C   0  0  0  0  0  0  0  0  0  0  0  0
   -5.7483    5.5238  -19.4522 C   0  0  0  0  0  0  0  0  0  0  0  0
   -6.7902    5.3250  -18.6174 N   0  0  0  0  0  0  0  0  0  0  0  0
   -8.0718    5.3125  -10.0879 C   0  0  0  0  0  0  0  0  0  0  0  0
   -8.1654    6.2918   -9.0821 C   0  0  0  0  0  0  0  0  0  0  0  0
   -8.3816    5.7670   -7.8696 N   0  0  0  0  0  0  0  0  0  0  0  0
   -8.3943    4.4392   -8.1113 N   0  0  0  0  0  0  0  0  0  0  0  0
   -8.2210    4.1101   -9.4307 C   0  0  0  0  0  0  0  0  0  0  0  0
   -8.2242    2.6952   -9.8589 C   0  0  0  0  0  0  0  0  0  0  0  0
   -7.9537    1.8161   -8.7273 N   0  0  0  0  0  0  0  0  0  0  0  0
   -8.8342    2.0902   -7.5926 C   0  0  0  0  0  0  0  0  0  0  0  0
   -8.5591    3.4823   -7.0306 C   0  0  0  0  0  0  0  0  0  0  0  0
  1  2  2  0
  2  3  2  0
  2  4  1  0
  4  5  1  0
  5  6  1  0
  6  7  1  0
  7  8  1  0
  8  9  2  0
  9 10  1  0
 10 11  2  0
 11 12  1  0
 12 13  2  0
  2 14  1  0
 14 15  1  0
 15 16  2  0
 16 17  1  0
 17 18  1  0
 18 19  1  0
 19 20  1  0
 20 21  1  0
 21 22  1  0
 13  8  1  0
 18 14  2  0
 22 17  1  0
M  END
>  <inchikey>  (127) 
BVYVEUDQHBUNQG-UHFFFAOYSA-N

>  <alias>  (127) 
O=S(=O)(NCCCc1ccccn1)c1cnn2c1CNCC2

>  <tags>  (127) 
{'openbind_xx01zvns2b_c1_knitwork_pure', 'fragmenstein_placed'}

>  <HIPPO Pose ID>  (127) 
38110

>  <ref_pdb>  (127) 
71

>  <smiles>  (127) 
C53640-P18

>  <fragmenstein_runtime>  (127) 
3.793144

>  <fragmenstein_outcome>  (127) 
acceptable

>  <fragmenstein_mode>  (127) 
expansion

>  <fragmenstein_error>  (127) 


>  <HIPPO Compound ID>  (127) 
48944

>  <Energy>  (127) 
-41.82048

>  <scratch_subdir>  (127) 
/opt/xchem-fragalysis-2/maxwin/BulkDock/SCRATCH/511030/C53640-P18

$$$$
N#Cc1ccc(S(=O)(=O)CCSc2cnn3c2CNCC3)nc1
     RDKit          3D

 23 25  0  0  0  0  0  0  0  0999 V2000
   -2.8472    5.2351  -20.6227 N   0  0  0  0  0  0  0  0  0  0  0  0
   -3.7052    5.2355  -19.8380 C   0  0  0  0  0  0  0  0  0  0  0  0
   -4.7386    5.1851  -18.8499 C   0  0  0  0  0  0  0  0  0  0  0  0
   -4.4644    5.3842  -17.4921 C   0  0  0  0  0  0  0  0  0  0  0  0
   -5.4946    5.2903  -16.5525 C   0  0  0  0  0  0  0  0  0  0  0  0
   -6.7606    4.9687  -17.0153 C   0  0  0  0  0  0  0  0  0  0  0  0
   -8.1663    4.8667  -15.9027 S   0  0  0  0  0  0  0  0  0  0  0  0
   -9.2223    4.1439  -16.5903 O   0  0  0  0  0  0  0  0  0  0  0  0
   -8.3617    6.2145  -15.3940 O   0  0  0  0  0  0  0  0  0  0  0  0
   -7.6321    3.8828  -14.5205 C   0  0  0  0  0  0  0  0  0  0  0  0
   -8.3153    4.1993  -13.1783 C   0  0  0  0  0  0  0  0  0  0  0  0
   -7.3020    5.2862  -12.1257 S   0  0  0  0  0  0  0  0  0  0  0  0
   -7.8976    5.1509  -10.4846 C   0  0  0  0  0  0  0  0  0  0  0  0
   -8.0901    6.2689   -9.6371 C   0  0  0  0  0  0  0  0  0  0  0  0
   -8.3976    5.9319   -8.3798 N   0  0  0  0  0  0  0  0  0  0  0  0
   -8.4282    4.5873   -8.4296 N   0  0  0  0  0  0  0  0  0  0  0  0
   -8.1179    4.0660   -9.6621 C   0  0  0  0  0  0  0  0  0  0  0  0
   -8.0815    2.5967   -9.8396 C   0  0  0  0  0  0  0  0  0  0  0  0
   -7.9045    1.8945   -8.5662 N   0  0  0  0  0  0  0  0  0  0  0  0
   -8.8752    2.3409   -7.5678 C   0  0  0  0  0  0  0  0  0  0  0  0
   -8.6556    3.8085   -7.2222 C   0  0  0  0  0  0  0  0  0  0  0  0
   -7.0608    4.7879  -18.3241 N   0  0  0  0  0  0  0  0  0  0  0  0
   -6.0468    4.9058  -19.2137 C   0  0  0  0  0  0  0  0  0  0  0  0
  1  2  3  0
  2  3  1  0
  3  4  2  0
  4  5  1  0
  5  6  2  0
  6  7  1  0
  7  8  2  0
  7  9  2  0
  7 10  1  0
 10 11  1  0
 11 12  1  0
 12 13  1  0
 13 14  1  0
 14 15  2  0
 15 16  1  0
 16 17  1  0
 17 18  1  0
 18 19  1  0
 19 20  1  0
 20 21  1  0
  6 22  1  0
 22 23  2  0
 23  3  1  0
 17 13  2  0
 21 16  1  0
M  END
>  <inchikey>  (128) 
BEHNVHPLVGPIIJ-UHFFFAOYSA-N

>  <alias>  (128) 
N#Cc1ccc(S(=O)(=O)CCSc2cnn3c2CNCC3)nc1

>  <tags>  (128) 
{'openbind_xx01zvns2b_c1_knitwork_pure', 'fragmenstein_placed'}

>  <HIPPO Pose ID>  (128) 
38117

>  <ref_pdb>  (128) 
71

>  <smiles>  (128) 
C53647-P18

>  <fragmenstein_runtime>  (128) 
2.689228

>  <fragmenstein_outcome>  (128) 
acceptable

>  <fragmenstein_mode>  (128) 
expansion

>  <fragmenstein_error>  (128) 


>  <HIPPO Compound ID>  (128) 
4264

>  <Energy>  (128) 
94.882143

>  <scratch_subdir>  (128) 
/opt/xchem-fragalysis-2/maxwin/BulkDock/SCRATCH/511030/C53647-P18

$$$$
N[C@@H](Cc1ccccn1)C(=O)NCc1cnn2c1CNCC2
     RDKit          3D

 22 24  0  0  0  0  0  0  0  0999 V2000
   -9.2548    4.5677  -14.0126 N   0  0  0  0  0  0  0  0  0  0  0  0
   -7.8709    4.6537  -14.5540 C   0  0  1  0  0  0  0  0  0  0  0  0
   -7.9515    5.0953  -16.0292 C   0  0  0  0  0  0  0  0  0  0  0  0
   -6.7273    5.0314  -16.9105 C   0  0  0  0  0  0  0  0  0  0  0  0
   -5.4232    5.0034  -16.4321 C   0  0  0  0  0  0  0  0  0  0  0  0
   -4.3629    5.0471  -17.3382 C   0  0  0  0  0  0  0  0  0  0  0  0
   -4.6242    5.1145  -18.6997 C   0  0  0  0  0  0  0  0  0  0  0  0
   -5.9442    5.1313  -19.1026 C   0  0  0  0  0  0  0  0  0  0  0  0
   -6.9832    5.0975  -18.2411 N   0  0  0  0  0  0  0  0  0  0  0  0
   -7.1086    5.6612  -13.6308 C   0  0  0  0  0  0  0  0  0  0  0  0
   -6.7173    6.7046  -13.9851 O   0  0  0  0  0  0  0  0  0  0  0  0
   -7.0728    4.9941  -12.2197 N   0  0  0  0  0  0  0  0  0  0  0  0
   -6.4694    5.4352  -10.9986 C   0  0  0  0  0  0  0  0  0  0  0  0
   -7.3675    5.2336   -9.8321 C   0  0  0  0  0  0  0  0  0  0  0  0
   -7.7949    6.2357   -8.9227 C   0  0  0  0  0  0  0  0  0  0  0  0
   -8.4294    5.7455   -7.8547 N   0  0  0  0  0  0  0  0  0  0  0  0
   -8.4228    4.4191   -8.0818 N   0  0  0  0  0  0  0  0  0  0  0  0
   -7.8852    4.0680   -9.2913 C   0  0  0  0  0  0  0  0  0  0  0  0
   -7.8962    2.6488   -9.7202 C   0  0  0  0  0  0  0  0  0  0  0  0
   -7.9468    1.7516   -8.5728 N   0  0  0  0  0  0  0  0  0  0  0  0
   -9.0386    2.0918   -7.6608 C   0  0  0  0  0  0  0  0  0  0  0  0
   -8.8299    3.4761   -7.0551 C   0  0  0  0  0  0  0  0  0  0  0  0
  2  1  1  1
  2  3  1  0
  3  4  1  0
  4  5  2  0
  5  6  1  0
  6  7  2  0
  7  8  1  0
  8  9  2  0
  2 10  1  0
 10 11  2  0
 10 12  1  0
 12 13  1  0
 13 14  1  0
 14 15  1  0
 15 16  2  0
 16 17  1  0
 17 18  1  0
 18 19  1  0
 19 20  1  0
 20 21  1  0
 21 22  1  0
  9  4  1  0
 18 14  2  0
 22 17  1  0
M  END
>  <inchikey>  (129) 
HRFQRUXJGXQXEZ-UHFFFAOYSA-N

>  <alias>  (129) 
N[C@@H](Cc1ccccn1)C(=O)NCc1cnn2c1CNCC2

>  <tags>  (129) 
{'openbind_xx01zvns2b_c1_knitwork_pure', 'fragmenstein_placed'}

>  <HIPPO Pose ID>  (129) 
38118

>  <ref_pdb>  (129) 
71

>  <smiles>  (129) 
C53648-P18

>  <fragmenstein_runtime>  (129) 
5.33745

>  <fragmenstein_outcome>  (129) 
acceptable

>  <fragmenstein_mode>  (129) 
expansion

>  <fragmenstein_error>  (129) 


>  <HIPPO Compound ID>  (129) 
15322

>  <Energy>  (129) 
57.984914

>  <scratch_subdir>  (129) 
/opt/xchem-fragalysis-2/maxwin/BulkDock/SCRATCH/511030/C53648-P18

$$$$
O=C(Nc1nc2ccccc2[nH]1)C(F)(F)C(F)(F)C(F)(F)C(F)(F)C(=O)Nc1nc2ccccc2[nH]1
     RDKit          3D

 36 39  0  0  0  0  0  0  0  0999 V2000
   -6.2502   10.9843  -24.2468 O   0  0  0  0  0  0  0  0  0  0  0  0
   -5.8935    9.8704  -24.2885 C   0  0  0  0  0  0  0  0  0  0  0  0
   -6.1245    8.7829  -25.3658 N   0  0  0  0  0  0  0  0  0  0  0  0
   -6.8618    8.8073  -26.4798 C   0  0  0  0  0  0  0  0  0  0  0  0
   -6.8383    7.8495  -27.3620 N   0  0  0  0  0  0  0  0  0  0  0  0
   -8.0682    7.9036  -27.9443 C   0  0  0  0  0  0  0  0  0  0  0  0
   -8.6400    7.0173  -28.8570 C   0  0  0  0  0  0  0  0  0  0  0  0
   -9.9675    7.2242  -29.2223 C   0  0  0  0  0  0  0  0  0  0  0  0
  -10.7139    8.2645  -28.6641 C   0  0  0  0  0  0  0  0  0  0  0  0
  -10.1503    9.1750  -27.7615 C   0  0  0  0  0  0  0  0  0  0  0  0
   -8.8084    8.9777  -27.4528 C   0  0  0  0  0  0  0  0  0  0  0  0
   -7.9236    9.6496  -26.6445 N   0  0  0  0  0  0  0  0  0  0  0  0
   -5.1421    9.2521  -23.0668 C   0  0  0  0  0  0  0  0  0  0  0  0
   -4.3959   10.2070  -22.4308 F   0  0  0  0  0  0  0  0  0  0  0  0
   -6.1296    8.9368  -22.1636 F   0  0  0  0  0  0  0  0  0  0  0  0
   -4.2689    8.0215  -23.2592 C   0  0  0  0  0  0  0  0  0  0  0  0
   -4.8081    7.2022  -24.2161 F   0  0  0  0  0  0  0  0  0  0  0  0
   -3.0489    8.3767  -23.7360 F   0  0  0  0  0  0  0  0  0  0  0  0
   -4.1670    7.1744  -22.0113 C   0  0  0  0  0  0  0  0  0  0  0  0
   -5.4260    6.7005  -21.7721 F   0  0  0  0  0  0  0  0  0  0  0  0
   -3.3808    6.0832  -22.2575 F   0  0  0  0  0  0  0  0  0  0  0  0
   -3.6541    7.8705  -20.7720 C   0  0  0  0  0  0  0  0  0  0  0  0
   -4.4197    8.9649  -20.5009 F   0  0  0  0  0  0  0  0  0  0  0  0
   -2.4034    8.3592  -21.0168 F   0  0  0  0  0  0  0  0  0  0  0  0
   -3.6902    6.9594  -19.5125 C   0  0  0  0  0  0  0  0  0  0  0  0
   -2.7826    6.8899  -18.7752 O   0  0  0  0  0  0  0  0  0  0  0  0
   -5.1121    6.3253  -19.4262 N   0  0  0  0  0  0  0  0  0  0  0  0
   -5.6897    5.6138  -18.4481 C   0  0  0  0  0  0  0  0  0  0  0  0
   -6.9315    5.2156  -18.4843 N   0  0  0  0  0  0  0  0  0  0  0  0
   -7.2263    4.8740  -17.1983 C   0  0  0  0  0  0  0  0  0  0  0  0
   -8.4489    4.4887  -16.6430 C   0  0  0  0  0  0  0  0  0  0  0  0
   -8.5203    4.3639  -15.2547 C   0  0  0  0  0  0  0  0  0  0  0  0
   -7.3973    4.5579  -14.4472 C   0  0  0  0  0  0  0  0  0  0  0  0
   -6.1555    4.8898  -14.9950 C   0  0  0  0  0  0  0  0  0  0  0  0
   -6.1149    5.0428  -16.3777 C   0  0  0  0  0  0  0  0  0  0  0  0
   -5.1045    5.3779  -17.2419 N   0  0  0  0  0  0  0  0  0  0  0  0
  1  2  2  0
  2  3  1  0
  3  4  1  0
  4  5  2  0
  5  6  1  0
  6  7  2  0
  7  8  1  0
  8  9  2  0
  9 10  1  0
 10 11  2  0
 11 12  1  0
  2 13  1  0
 13 14  1  0
 13 15  1  0
 13 16  1  0
 16 17  1  0
 16 18  1  0
 16 19  1  0
 19 20  1  0
 19 21  1  0
 19 22  1  0
 22 23  1  0
 22 24  1  0
 22 25  1  0
 25 26  2  0
 25 27  1  0
 27 28  1  0
 28 29  2  0
 29 30  1  0
 30 31  2  0
 31 32  1  0
 32 33  2  0
 33 34  1  0
 34 35  2  0
 35 36  1  0
 12  4  1  0
 36 28  1  0
 11  6  1  0
 35 30  1  0
M  END
>  <inchikey>  (130) 
BFJFULMYQPXSKB-UHFFFAOYSA-N

>  <alias>  (130) 
O=C(Nc1nc2ccccc2[nH]1)C(F)(F)C(F)(F)C(F)(F)C(F)(F)C(=O)Nc1nc2ccccc2[nH]1

>  <tags>  (130) 
{'openbind_xx01zvns2b_c1_knitwork_pure', 'fragmenstein_placed'}

>  <HIPPO Pose ID>  (130) 
38142

>  <ref_pdb>  (130) 
71

>  <smiles>  (130) 
C7428-P219

>  <fragmenstein_runtime>  (130) 
24.994247

>  <fragmenstein_outcome>  (130) 
acceptable

>  <fragmenstein_mode>  (130) 
expansion

>  <fragmenstein_error>  (130) 


>  <HIPPO Compound ID>  (130) 
14550

>  <Energy>  (130) 
106.563287

>  <scratch_subdir>  (130) 
/opt/xchem-fragalysis-2/maxwin/BulkDock/SCRATCH/511030/C7428-P219

$$$$
Cc1cn(C(C)(C)C(=O)Nc2ccc3c(c2)CNC3)cn1
     RDKit          3D

 21 23  0  0  0  0  0  0  0  0999 V2000
   -3.0183    5.9033  -17.1332 C   0  0  0  0  0  0  0  0  0  0  0  0
   -4.4418    5.7887  -16.7646 C   0  0  0  0  0  0  0  0  0  0  0  0
   -5.0217    5.6841  -15.5194 C   0  0  0  0  0  0  0  0  0  0  0  0
   -6.3527    5.4100  -15.7537 N   0  0  0  0  0  0  0  0  0  0  0  0
   -7.2541    4.7120  -14.7981 C   0  0  0  0  0  0  0  0  0  0  0  0
   -8.6490    4.5120  -15.4201 C   0  0  0  0  0  0  0  0  0  0  0  0
   -6.5342    3.3746  -14.4678 C   0  0  0  0  0  0  0  0  0  0  0  0
   -7.4375    5.4558  -13.4379 C   0  0  0  0  0  0  0  0  0  0  0  0
   -7.0930    6.5599  -13.2349 O   0  0  0  0  0  0  0  0  0  0  0  0
   -8.0538    4.3826  -12.4599 N   0  0  0  0  0  0  0  0  0  0  0  0
   -8.2640    4.4296  -11.0933 C   0  0  0  0  0  0  0  0  0  0  0  0
   -8.0205    5.5636  -10.3169 C   0  0  0  0  0  0  0  0  0  0  0  0
   -8.1463    5.4934   -8.9244 C   0  0  0  0  0  0  0  0  0  0  0  0
   -8.5006    4.2827   -8.3489 C   0  0  0  0  0  0  0  0  0  0  0  0
   -8.7281    3.1549   -9.1266 C   0  0  0  0  0  0  0  0  0  0  0  0
   -8.6314    3.2149  -10.4991 C   0  0  0  0  0  0  0  0  0  0  0  0
   -8.9908    1.9839   -8.2420 C   0  0  0  0  0  0  0  0  0  0  0  0
   -9.3194    2.5802   -6.9225 N   0  0  0  0  0  0  0  0  0  0  0  0
   -8.6628    3.9082   -6.9136 C   0  0  0  0  0  0  0  0  0  0  0  0
   -6.5256    5.4823  -17.1159 C   0  0  0  0  0  0  0  0  0  0  0  0
   -5.3960    5.7214  -17.7400 N   0  0  0  0  0  0  0  0  0  0  0  0
  1  2  1  0
  2  3  2  0
  3  4  1  0
  4  5  1  0
  5  6  1  0
  5  7  1  0
  5  8  1  0
  8  9  2  0
  8 10  1  0
 10 11  1  0
 11 12  2  0
 12 13  1  0
 13 14  2  0
 14 15  1  0
 15 16  2  0
 15 17  1  0
 17 18  1  0
 18 19  1  0
  4 20  1  0
 20 21  2  0
 21  2  1  0
 16 11  1  0
 19 14  1  0
M  END
>  <inchikey>  (131) 
YRBOKKVCSQYUHW-UHFFFAOYSA-N

>  <alias>  (131) 
Cc1cn(C(C)(C)C(=O)Nc2ccc3c(c2)CNC3)cn1

>  <tags>  (131) 
{'openbind_xx01zvns2b_c1_knitwork_pure', 'fragmenstein_placed'}

>  <HIPPO Pose ID>  (131) 
38488

>  <ref_pdb>  (131) 
71

>  <smiles>  (131) 
C5565-P35

>  <fragmenstein_runtime>  (131) 
8.7717

>  <fragmenstein_outcome>  (131) 
acceptable

>  <fragmenstein_mode>  (131) 
expansion

>  <fragmenstein_error>  (131) 


>  <HIPPO Compound ID>  (131) 
16128

>  <Energy>  (131) 
62.228498

>  <scratch_subdir>  (131) 
/opt/xchem-fragalysis-2/maxwin/BulkDock/SCRATCH/511030/C5565-P35

$$$$
CC(C)(CO)NC(=O)c1cccc2cccnc12
     RDKit          3D

 18 19  0  0  0  0  0  0  0  0999 V2000
   -3.8759    7.0265  -20.7879 C   0  0  0  0  0  0  0  0  0  0  0  0
   -3.9767    5.5015  -20.6116 C   0  0  0  0  0  0  0  0  0  0  0  0
   -2.6657    4.9885  -20.0057 C   0  0  0  0  0  0  0  0  0  0  0  0
   -4.1995    4.8443  -21.9932 C   0  0  0  0  0  0  0  0  0  0  0  0
   -5.3826    5.3193  -22.6278 O   0  0  0  0  0  0  0  0  0  0  0  0
   -5.0696    5.1406  -19.7005 N   0  0  0  0  0  0  0  0  0  0  0  0
   -5.9957    6.0287  -18.8458 C   0  0  0  0  0  0  0  0  0  0  0  0
   -6.0882    7.1911  -18.7888 O   0  0  0  0  0  0  0  0  0  0  0  0
   -6.8436    5.1967  -17.9540 C   0  0  0  0  0  0  0  0  0  0  0  0
   -7.9590    4.5418  -18.4920 C   0  0  0  0  0  0  0  0  0  0  0  0
   -8.9097    3.9811  -17.6528 C   0  0  0  0  0  0  0  0  0  0  0  0
   -8.7181    4.0423  -16.2805 C   0  0  0  0  0  0  0  0  0  0  0  0
   -7.5642    4.6306  -15.7453 C   0  0  0  0  0  0  0  0  0  0  0  0
   -7.3681    4.6561  -14.3643 C   0  0  0  0  0  0  0  0  0  0  0  0
   -6.2182    5.2394  -13.8456 C   0  0  0  0  0  0  0  0  0  0  0  0
   -5.3065    5.7853  -14.7299 C   0  0  0  0  0  0  0  0  0  0  0  0
   -5.4740    5.7900  -16.0645 N   0  0  0  0  0  0  0  0  0  0  0  0
   -6.5899    5.2208  -16.5812 C   0  0  0  0  0  0  0  0  0  0  0  0
  1  2  1  0
  2  3  1  0
  2  4  1  0
  4  5  1  0
  2  6  1  0
  6  7  1  0
  7  8  2  0
  7  9  1  0
  9 10  2  0
 10 11  1  0
 11 12  2  0
 12 13  1  0
 13 14  2  0
 14 15  1  0
 15 16  2  0
 16 17  1  0
 17 18  2  0
 18  9  1  0
 18 13  1  0
M  END
>  <inchikey>  (132) 
DRDLZNKNTAQANR-UHFFFAOYSA-N

>  <alias>  (132) 
CC(C)(CO)NC(=O)c1cccc2cccnc12

>  <tags>  (132) 
{'openbind_xx01zvns2b_c1_knitwork_pure', 'fragmenstein_placed'}

>  <HIPPO Pose ID>  (132) 
38619

>  <ref_pdb>  (132) 
71

>  <smiles>  (132) 
C1240-P8

>  <fragmenstein_runtime>  (132) 
2.235709

>  <fragmenstein_outcome>  (132) 
acceptable

>  <fragmenstein_mode>  (132) 
expansion

>  <fragmenstein_error>  (132) 


>  <HIPPO Compound ID>  (132) 
51214

>  <Energy>  (132) 
83.407138

>  <scratch_subdir>  (132) 
/opt/xchem-fragalysis-2/maxwin/BulkDock/SCRATCH/511030/C1240-P8

$$$$
Cc1cc2ccccc2nc1C(=O)Nc1ccc2c(c1)CNC2
     RDKit          3D

 23 26  0  0  0  0  0  0  0  0999 V2000
   -3.9247    5.9170  -14.9416 C   0  0  0  0  0  0  0  0  0  0  0  0
   -5.2727    5.4572  -15.4141 C   0  0  0  0  0  0  0  0  0  0  0  0
   -5.4845    5.2544  -16.7818 C   0  0  0  0  0  0  0  0  0  0  0  0
   -6.7289    4.8194  -17.2502 C   0  0  0  0  0  0  0  0  0  0  0  0
   -6.9741    4.6154  -18.6145 C   0  0  0  0  0  0  0  0  0  0  0  0
   -8.2268    4.1792  -19.0340 C   0  0  0  0  0  0  0  0  0  0  0  0
   -9.2381    3.9699  -18.1106 C   0  0  0  0  0  0  0  0  0  0  0  0
   -8.9811    4.1590  -16.7583 C   0  0  0  0  0  0  0  0  0  0  0  0
   -7.7457    4.5802  -16.3064 C   0  0  0  0  0  0  0  0  0  0  0  0
   -7.5704    4.7641  -14.9926 N   0  0  0  0  0  0  0  0  0  0  0  0
   -6.3602    5.2217  -14.5666 C   0  0  0  0  0  0  0  0  0  0  0  0
   -6.3218    5.4866  -13.0799 C   0  0  0  0  0  0  0  0  0  0  0  0
   -5.6446    6.3370  -12.6482 O   0  0  0  0  0  0  0  0  0  0  0  0
   -7.2566    4.4794  -12.3560 N   0  0  0  0  0  0  0  0  0  0  0  0
   -7.6096    4.3776  -11.0112 C   0  0  0  0  0  0  0  0  0  0  0  0
   -7.3733    5.4379  -10.1235 C   0  0  0  0  0  0  0  0  0  0  0  0
   -7.6897    5.3214   -8.7662 C   0  0  0  0  0  0  0  0  0  0  0  0
   -8.2059    4.1215   -8.3142 C   0  0  0  0  0  0  0  0  0  0  0  0
   -8.4367    3.0664   -9.1869 C   0  0  0  0  0  0  0  0  0  0  0  0
   -8.1779    3.1863  -10.5458 C   0  0  0  0  0  0  0  0  0  0  0  0
   -8.8728    1.8750   -8.4014 C   0  0  0  0  0  0  0  0  0  0  0  0
   -9.1747    2.3717   -7.0332 N   0  0  0  0  0  0  0  0  0  0  0  0
   -8.5444    3.7022   -6.9253 C   0  0  0  0  0  0  0  0  0  0  0  0
  1  2  1  0
  2  3  2  0
  3  4  1  0
  4  5  2  0
  5  6  1  0
  6  7  2  0
  7  8  1  0
  8  9  2  0
  9 10  1  0
 10 11  2  0
 11 12  1  0
 12 13  2  0
 12 14  1  0
 14 15  1  0
 15 16  2  0
 16 17  1  0
 17 18  2  0
 18 19  1  0
 19 20  2  0
 19 21  1  0
 21 22  1  0
 22 23  1  0
 11  2  1  0
 20 15  1  0
  9  4  1  0
 23 18  1  0
M  END
>  <inchikey>  (133) 
GUXSYJFXQPWWTO-UHFFFAOYSA-N

>  <alias>  (133) 
Cc1cc2ccccc2nc1C(=O)Nc1ccc2c(c1)CNC2

>  <tags>  (133) 
{'openbind_xx01zvns2b_c1_knitwork_pure', 'fragmenstein_placed'}

>  <HIPPO Pose ID>  (133) 
38672

>  <ref_pdb>  (133) 
71

>  <smiles>  (133) 
C936-P39

>  <fragmenstein_runtime>  (133) 
5.618185

>  <fragmenstein_outcome>  (133) 
acceptable

>  <fragmenstein_mode>  (133) 
expansion

>  <fragmenstein_error>  (133) 


>  <HIPPO Compound ID>  (133) 
4227

>  <Energy>  (133) 
93.515717

>  <scratch_subdir>  (133) 
/opt/xchem-fragalysis-2/maxwin/BulkDock/SCRATCH/511030/C936-P39

$$$$
COc1ccc2cc(C[C@@H](C)Nc3ccncn3)ccc2c1
     RDKit          3D

 22 24  0  0  0  0  0  0  0  0999 V2000
    4.5813    8.2358  -19.8643 C   0  0  0  0  0  0  0  0  0  0  0  0
    3.2753    8.7703  -19.6860 O   0  0  0  0  0  0  0  0  0  0  0  0
    2.2509    7.8697  -19.5823 C   0  0  0  0  0  0  0  0  0  0  0  0
    2.3760    6.4841  -19.5724 C   0  0  0  0  0  0  0  0  0  0  0  0
    1.2369    5.6788  -19.4612 C   0  0  0  0  0  0  0  0  0  0  0  0
   -0.0470    6.2354  -19.3632 C   0  0  0  0  0  0  0  0  0  0  0  0
   -1.2039    5.4337  -19.2594 C   0  0  0  0  0  0  0  0  0  0  0  0
   -2.4815    6.0047  -19.1209 C   0  0  0  0  0  0  0  0  0  0  0  0
   -3.6745    5.0811  -18.9802 C   0  0  0  0  0  0  0  0  0  0  0  0
   -5.0017    5.6857  -18.4569 C   0  0  1  0  0  0  0  0  0  0  0  0
   -5.8216    6.2294  -19.6160 C   0  0  0  0  0  0  0  0  0  0  0  0
   -5.6657    4.6726  -17.6289 N   0  0  0  0  0  0  0  0  0  0  0  0
   -7.0406    4.5753  -17.5057 C   0  0  0  0  0  0  0  0  0  0  0  0
   -7.8613    4.2831  -18.5715 C   0  0  0  0  0  0  0  0  0  0  0  0
   -9.1893    4.0888  -18.2992 C   0  0  0  0  0  0  0  0  0  0  0  0
   -9.6949    4.1118  -17.0615 N   0  0  0  0  0  0  0  0  0  0  0  0
   -8.8160    4.3916  -16.0915 C   0  0  0  0  0  0  0  0  0  0  0  0
   -7.5111    4.6634  -16.2527 N   0  0  0  0  0  0  0  0  0  0  0  0
   -2.5801    7.3996  -19.1336 C   0  0  0  0  0  0  0  0  0  0  0  0
   -1.4443    8.2057  -19.2548 C   0  0  0  0  0  0  0  0  0  0  0  0
   -0.1711    7.6383  -19.3643 C   0  0  0  0  0  0  0  0  0  0  0  0
    0.9794    8.4384  -19.4744 C   0  0  0  0  0  0  0  0  0  0  0  0
  1  2  1  0
  2  3  1  0
  3  4  2  0
  4  5  1  0
  5  6  2  0
  6  7  1  0
  7  8  2  0
  8  9  1  0
  9 10  1  0
 10 11  1  6
 10 12  1  0
 12 13  1  0
 13 14  2  0
 14 15  1  0
 15 16  2  0
 16 17  1  0
 17 18  2  0
  8 19  1  0
 19 20  2  0
 20 21  1  0
 21 22  2  0
 22  3  1  0
 21  6  1  0
 18 13  1  0
M  END
>  <inchikey>  (134) 
UUGSQMJTOJQFLL-UHFFFAOYSA-N

>  <alias>  (134) 
COc1ccc2cc(C[C@@H](C)Nc3ccncn3)ccc2c1

>  <tags>  (134) 
{'openbind_xx01zvns2b_c1_knitwork_pure', 'fragmenstein_placed'}

>  <HIPPO Pose ID>  (134) 
38849

>  <ref_pdb>  (134) 
71

>  <smiles>  (134) 
C54343-P7

>  <fragmenstein_runtime>  (134) 
55.26527

>  <fragmenstein_outcome>  (134) 
acceptable

>  <fragmenstein_mode>  (134) 
expansion

>  <fragmenstein_error>  (134) 


>  <HIPPO Compound ID>  (134) 
47617

>  <Energy>  (134) 
8.589365

>  <scratch_subdir>  (134) 
/opt/xchem-fragalysis-2/maxwin/BulkDock/SCRATCH/511030/C54343-P7

$$$$
C[C@@H](CN)N1Cc2cccc(N)c2C1
     RDKit          3D

 14 15  0  0  0  0  0  0  0  0999 V2000
   -3.1028    6.2113  -18.6950 C   0  0  0  0  0  0  0  0  0  0  0  0
   -3.6105    5.4931  -17.4301 C   0  0  1  0  0  0  0  0  0  0  0  0
   -2.6189    5.8317  -16.2717 C   0  0  0  0  0  0  0  0  0  0  0  0
   -2.7372    4.9908  -15.0763 N   0  0  0  0  0  0  0  0  0  0  0  0
   -5.0190    5.8755  -17.1902 N   0  0  0  0  0  0  0  0  0  0  0  0
   -5.9299    5.3930  -18.2636 C   0  0  0  0  0  0  0  0  0  0  0  0
   -7.1670    4.9267  -17.5752 C   0  0  0  0  0  0  0  0  0  0  0  0
   -8.3467    4.4865  -18.1458 C   0  0  0  0  0  0  0  0  0  0  0  0
   -9.3733    4.1025  -17.2972 C   0  0  0  0  0  0  0  0  0  0  0  0
   -9.1750    4.1065  -15.9089 C   0  0  0  0  0  0  0  0  0  0  0  0
   -7.9561    4.4571  -15.3293 C   0  0  0  0  0  0  0  0  0  0  0  0
   -7.8402    4.4827  -13.9284 N   0  0  0  0  0  0  0  0  0  0  0  0
   -6.9815    4.9365  -16.1915 C   0  0  0  0  0  0  0  0  0  0  0  0
   -5.5858    5.3922  -15.9034 C   0  0  0  0  0  0  0  0  0  0  0  0
  2  1  1  6
  2  3  1  0
  3  4  1  0
  2  5  1  0
  5  6  1  0
  6  7  1  0
  7  8  2  0
  8  9  1  0
  9 10  2  0
 10 11  1  0
 11 12  1  0
 11 13  2  0
 13 14  1  0
 14  5  1  0
 13  7  1  0
M  END
>  <inchikey>  (135) 
IDCHRXIDDDPKJS-UHFFFAOYSA-N

>  <alias>  (135) 
C[C@@H](CN)N1Cc2cccc(N)c2C1

>  <tags>  (135) 
{'openbind_xx01zvns2b_c1_knitwork_pure', 'fragmenstein_placed'}

>  <HIPPO Pose ID>  (135) 
38931

>  <ref_pdb>  (135) 
71

>  <smiles>  (135) 
C13732-P145

>  <fragmenstein_runtime>  (135) 
3.94043

>  <fragmenstein_outcome>  (135) 
acceptable

>  <fragmenstein_mode>  (135) 
expansion

>  <fragmenstein_error>  (135) 


>  <HIPPO Compound ID>  (135) 
6526

>  <Energy>  (135) 
49.52352

>  <scratch_subdir>  (135) 
/opt/xchem-fragalysis-2/maxwin/BulkDock/SCRATCH/511030/C13732-P145

$$$$
C[C@H](CN)c1nc2ccccc2[nH]1
     RDKit          3D

 13 14  0  0  0  0  0  0  0  0999 V2000
   -2.8728    5.1834  -18.6667 C   0  0  0  0  0  0  0  0  0  0  0  0
   -3.5689    5.9997  -17.5844 C   0  0  2  0  0  0  0  0  0  0  0  0
   -2.7372    6.0241  -16.2737 C   0  0  0  0  0  0  0  0  0  0  0  0
   -2.7351    4.7688  -15.5182 N   0  0  0  0  0  0  0  0  0  0  0  0
   -4.9845    5.5626  -17.3153 C   0  0  0  0  0  0  0  0  0  0  0  0
   -5.5458    5.5097  -16.1203 N   0  0  0  0  0  0  0  0  0  0  0  0
   -6.7971    4.9950  -16.3186 C   0  0  0  0  0  0  0  0  0  0  0  0
   -7.7839    4.6720  -15.3822 C   0  0  0  0  0  0  0  0  0  0  0  0
   -9.0003    4.1754  -15.8554 C   0  0  0  0  0  0  0  0  0  0  0  0
   -9.2348    4.0150  -17.2231 C   0  0  0  0  0  0  0  0  0  0  0  0
   -8.2491    4.3097  -18.1665 C   0  0  0  0  0  0  0  0  0  0  0  0
   -7.0424    4.7994  -17.6698 C   0  0  0  0  0  0  0  0  0  0  0  0
   -5.8768    5.1718  -18.2883 N   0  0  0  0  0  0  0  0  0  0  0  0
  2  1  1  6
  2  3  1  0
  3  4  1  0
  2  5  1  0
  5  6  2  0
  6  7  1  0
  7  8  2  0
  8  9  1  0
  9 10  2  0
 10 11  1  0
 11 12  2  0
 12 13  1  0
 13  5  1  0
 12  7  1  0
M  END
>  <inchikey>  (136) 
QAJNLCLTOJYNEC-UHFFFAOYSA-N

>  <alias>  (136) 
C[C@H](CN)c1nc2ccccc2[nH]1

>  <tags>  (136) 
{'openbind_xx01zvns2b_c1_knitwork_pure', 'fragmenstein_placed'}

>  <HIPPO Pose ID>  (136) 
38933

>  <ref_pdb>  (136) 
71

>  <smiles>  (136) 
C8737-P145

>  <fragmenstein_runtime>  (136) 
0.987128

>  <fragmenstein_outcome>  (136) 
acceptable

>  <fragmenstein_mode>  (136) 
expansion

>  <fragmenstein_error>  (136) 


>  <HIPPO Compound ID>  (136) 
9601

>  <Energy>  (136) 
26.506656

>  <scratch_subdir>  (136) 
/opt/xchem-fragalysis-2/maxwin/BulkDock/SCRATCH/511030/C8737-P145

$$$$
C[C@H](CN)c1nc2cc(N)ccc2n1[C@H](C)C(=O)O
     RDKit          3D

 19 20  0  0  0  0  0  0  0  0999 V2000
   -2.6121    5.3219  -18.1716 C   0  0  0  0  0  0  0  0  0  0  0  0
   -3.2578    6.1771  -17.0879 C   0  0  2  0  0  0  0  0  0  0  0  0
   -2.4295    6.0721  -15.7744 C   0  0  0  0  0  0  0  0  0  0  0  0
   -2.4969    4.7643  -15.1142 N   0  0  0  0  0  0  0  0  0  0  0  0
   -4.7093    5.8569  -16.8056 C   0  0  0  0  0  0  0  0  0  0  0  0
   -5.1581    5.6517  -15.5794 N   0  0  0  0  0  0  0  0  0  0  0  0
   -6.4426    5.2263  -15.7038 C   0  0  0  0  0  0  0  0  0  0  0  0
   -7.3526    4.9042  -14.6998 C   0  0  0  0  0  0  0  0  0  0  0  0
   -8.6197    4.4529  -15.0615 C   0  0  0  0  0  0  0  0  0  0  0  0
   -9.5876    4.2903  -14.0474 N   0  0  0  0  0  0  0  0  0  0  0  0
   -8.9647    4.3369  -16.4142 C   0  0  0  0  0  0  0  0  0  0  0  0
   -8.0643    4.6733  -17.4384 C   0  0  0  0  0  0  0  0  0  0  0  0
   -6.8175    5.1651  -17.0342 C   0  0  0  0  0  0  0  0  0  0  0  0
   -5.7654    5.7830  -17.6907 N   0  0  0  0  0  0  0  0  0  0  0  0
   -5.9233    6.4176  -18.9893 C   0  0  2  0  0  0  0  0  0  0  0  0
   -5.4153    5.5685  -20.1204 C   0  0  0  0  0  0  0  0  0  0  0  0
   -5.4728    7.8582  -19.0413 C   0  0  0  0  0  0  0  0  0  0  0  0
   -6.1351    8.8289  -18.6923 O   0  0  0  0  0  0  0  0  0  0  0  0
   -4.2359    8.0497  -19.5426 O   0  0  0  0  0  0  0  0  0  0  0  0
  2  1  1  6
  2  3  1  0
  3  4  1  0
  2  5  1  0
  5  6  2  0
  6  7  1  0
  7  8  2  0
  8  9  1  0
  9 10  1  0
  9 11  2  0
 11 12  1  0
 12 13  2  0
 13 14  1  0
 14 15  1  0
 15 16  1  6
 15 17  1  0
 17 18  2  0
 17 19  1  0
 14  5  1  0
 13  7  1  0
M  END
>  <inchikey>  (137) 
FNKZZTCAOJDNKB-UHFFFAOYSA-N

>  <alias>  (137) 
C[C@H](CN)c1nc2cc(N)ccc2n1[C@H](C)C(=O)O

>  <tags>  (137) 
{'openbind_xx01zvns2b_c1_knitwork_pure', 'fragmenstein_placed'}

>  <HIPPO Pose ID>  (137) 
38935

>  <ref_pdb>  (137) 
71

>  <smiles>  (137) 
C11818-P145

>  <fragmenstein_runtime>  (137) 
2.085689

>  <fragmenstein_outcome>  (137) 
acceptable

>  <fragmenstein_mode>  (137) 
expansion

>  <fragmenstein_error>  (137) 


>  <HIPPO Compound ID>  (137) 
52423

>  <Energy>  (137) 
26.496815

>  <scratch_subdir>  (137) 
/opt/xchem-fragalysis-2/maxwin/BulkDock/SCRATCH/511030/C11818-P145

$$$$
C[C@H](CN)c1nc2cccc(F)c2n1[C@@H](C)C(=O)O
     RDKit          3D

 19 20  0  0  0  0  0  0  0  0999 V2000
   -2.9104    5.8640  -18.4456 C   0  0  0  0  0  0  0  0  0  0  0  0
   -3.4768    6.3460  -17.0973 C   0  0  2  0  0  0  0  0  0  0  0  0
   -2.5559    5.8807  -15.9525 C   0  0  0  0  0  0  0  0  0  0  0  0
   -2.7968    4.5281  -15.4748 N   0  0  0  0  0  0  0  0  0  0  0  0
   -4.9175    5.9156  -16.9440 C   0  0  0  0  0  0  0  0  0  0  0  0
   -5.6049    5.3856  -17.9398 N   0  0  0  0  0  0  0  0  0  0  0  0
   -6.7887    4.9565  -17.4210 C   0  0  0  0  0  0  0  0  0  0  0  0
   -7.8644    4.3130  -18.0494 C   0  0  0  0  0  0  0  0  0  0  0  0
   -8.9629    3.9275  -17.2750 C   0  0  0  0  0  0  0  0  0  0  0  0
   -8.9732    4.1612  -15.9009 C   0  0  0  0  0  0  0  0  0  0  0  0
   -7.9204    4.8266  -15.2804 C   0  0  0  0  0  0  0  0  0  0  0  0
   -7.9622    5.0709  -13.9641 F   0  0  0  0  0  0  0  0  0  0  0  0
   -6.8469    5.2413  -16.0656 C   0  0  0  0  0  0  0  0  0  0  0  0
   -5.7148    5.9985  -15.8125 N   0  0  0  0  0  0  0  0  0  0  0  0
   -5.5778    6.8062  -14.5943 C   0  0  1  0  0  0  0  0  0  0  0  0
   -5.0525    6.0226  -13.3907 C   0  0  0  0  0  0  0  0  0  0  0  0
   -4.8474    8.1209  -14.7748 C   0  0  0  0  0  0  0  0  0  0  0  0
   -3.9231    8.5462  -14.0991 O   0  0  0  0  0  0  0  0  0  0  0  0
   -5.3383    8.8977  -15.7629 O   0  0  0  0  0  0  0  0  0  0  0  0
  2  1  1  6
  2  3  1  0
  3  4  1  0
  2  5  1  0
  5  6  2  0
  6  7  1  0
  7  8  2  0
  8  9  1  0
  9 10  2  0
 10 11  1  0
 11 12  1  0
 11 13  2  0
 13 14  1  0
 14 15  1  0
 15 16  1  1
 15 17  1  0
 17 18  2  0
 17 19  1  0
 14  5  1  0
 13  7  1  0
M  END
>  <inchikey>  (138) 
SGFUMUYBGPAJPY-UHFFFAOYSA-N

>  <alias>  (138) 
C[C@H](CN)c1nc2cccc(F)c2n1[C@@H](C)C(=O)O

>  <tags>  (138) 
{'openbind_xx01zvns2b_c1_knitwork_pure', 'fragmenstein_placed'}

>  <HIPPO Pose ID>  (138) 
38936

>  <ref_pdb>  (138) 
71

>  <smiles>  (138) 
C11819-P145

>  <fragmenstein_runtime>  (138) 
1.981196

>  <fragmenstein_outcome>  (138) 
acceptable

>  <fragmenstein_mode>  (138) 
expansion

>  <fragmenstein_error>  (138) 


>  <HIPPO Compound ID>  (138) 
7420

>  <Energy>  (138) 
22.229968

>  <scratch_subdir>  (138) 
/opt/xchem-fragalysis-2/maxwin/BulkDock/SCRATCH/511030/C11819-P145

$$$$
C[C@H](C(=O)O)n1c([C@@H](C)CN)nc2cc(O)ccc21
     RDKit          3D

 19 20  0  0  0  0  0  0  0  0999 V2000
   -2.7941    6.8578  -17.9596 C   0  0  0  0  0  0  0  0  0  0  0  0
   -3.3071    5.7009  -17.1093 C   0  0  1  0  0  0  0  0  0  0  0  0
   -2.4324    5.6687  -15.8229 C   0  0  0  0  0  0  0  0  0  0  0  0
   -2.7761    4.6144  -14.8635 N   0  0  0  0  0  0  0  0  0  0  0  0
   -4.7865    5.7505  -16.7675 C   0  0  0  0  0  0  0  0  0  0  0  0
   -5.2591    5.6227  -15.5366 N   0  0  0  0  0  0  0  0  0  0  0  0
   -6.5596    5.2161  -15.6628 C   0  0  0  0  0  0  0  0  0  0  0  0
   -7.4937    4.8933  -14.6754 C   0  0  0  0  0  0  0  0  0  0  0  0
   -8.7538    4.4768  -15.0919 C   0  0  0  0  0  0  0  0  0  0  0  0
   -9.7043    4.2767  -14.1335 O   0  0  0  0  0  0  0  0  0  0  0  0
   -9.0775    4.3153  -16.4362 C   0  0  0  0  0  0  0  0  0  0  0  0
   -8.1513    4.6382  -17.4331 C   0  0  0  0  0  0  0  0  0  0  0  0
   -6.9162    5.1394  -16.9999 C   0  0  0  0  0  0  0  0  0  0  0  0
   -5.8492    5.7337  -17.6470 N   0  0  0  0  0  0  0  0  0  0  0  0
   -5.9587    6.3003  -18.9818 C   0  0  2  0  0  0  0  0  0  0  0  0
   -5.3007    5.4172  -20.0044 C   0  0  0  0  0  0  0  0  0  0  0  0
   -5.6357    7.7794  -19.0649 C   0  0  0  0  0  0  0  0  0  0  0  0
   -6.1064    8.6709  -18.3713 O   0  0  0  0  0  0  0  0  0  0  0  0
   -4.8059    8.1276  -20.0711 O   0  0  0  0  0  0  0  0  0  0  0  0
  2  1  1  1
  2  3  1  0
  3  4  1  0
  2  5  1  0
  5  6  2  0
  6  7  1  0
  7  8  2  0
  8  9  1  0
  9 10  1  0
  9 11  2  0
 11 12  1  0
 12 13  2  0
 13 14  1  0
 14 15  1  0
 15 16  1  6
 15 17  1  0
 17 18  2  0
 17 19  1  0
 14  5  1  0
 13  7  1  0
M  END
>  <inchikey>  (139) 
LZCNSNTZDDUPOT-UHFFFAOYSA-N

>  <alias>  (139) 
C[C@H](C(=O)O)n1c([C@@H](C)CN)nc2cc(O)ccc21

>  <tags>  (139) 
{'openbind_xx01zvns2b_c1_knitwork_pure', 'fragmenstein_placed'}

>  <HIPPO Pose ID>  (139) 
38937

>  <ref_pdb>  (139) 
71

>  <smiles>  (139) 
C11820-P145

>  <fragmenstein_runtime>  (139) 
1.183583

>  <fragmenstein_outcome>  (139) 
acceptable

>  <fragmenstein_mode>  (139) 
expansion

>  <fragmenstein_error>  (139) 


>  <HIPPO Compound ID>  (139) 
55341

>  <Energy>  (139) 
27.742922

>  <scratch_subdir>  (139) 
/opt/xchem-fragalysis-2/maxwin/BulkDock/SCRATCH/511030/C11820-P145

$$$$
C[C@H](CN)c1nc2ccc(Br)cc2[nH]1
     RDKit          3D

 14 15  0  0  0  0  0  0  0  0999 V2000
   -2.9900    6.2966  -18.9392 C   0  0  0  0  0  0  0  0  0  0  0  0
   -3.3257    6.1571  -17.4545 C   0  0  2  0  0  0  0  0  0  0  0  0
   -2.3009    5.2377  -16.7723 C   0  0  0  0  0  0  0  0  0  0  0  0
   -2.5061    5.0394  -15.3300 N   0  0  0  0  0  0  0  0  0  0  0  0
   -4.7149    5.6639  -17.1971 C   0  0  0  0  0  0  0  0  0  0  0  0
   -5.2504    5.5521  -15.9946 N   0  0  0  0  0  0  0  0  0  0  0  0
   -6.5046    5.0514  -16.1919 C   0  0  0  0  0  0  0  0  0  0  0  0
   -7.4998    4.7402  -15.2584 C   0  0  0  0  0  0  0  0  0  0  0  0
   -8.7533    4.3695  -15.7445 C   0  0  0  0  0  0  0  0  0  0  0  0
   -8.9758    4.3024  -17.1201 C   0  0  0  0  0  0  0  0  0  0  0  0
  -10.7179    4.1995  -17.7807 Br  0  0  0  0  0  0  0  0  0  0  0  0
   -7.9690    4.4853  -18.0610 C   0  0  0  0  0  0  0  0  0  0  0  0
   -6.7516    4.8900  -17.5463 C   0  0  0  0  0  0  0  0  0  0  0  0
   -5.5867    5.2391  -18.1657 N   0  0  0  0  0  0  0  0  0  0  0  0
  2  1  1  6
  2  3  1  0
  3  4  1  0
  2  5  1  0
  5  6  2  0
  6  7  1  0
  7  8  2  0
  8  9  1  0
  9 10  2  0
 10 11  1  0
 10 12  1  0
 12 13  2  0
 13 14  1  0
 14  5  1  0
 13  7  1  0
M  END
>  <inchikey>  (140) 
SGEUOMSGSCTGMA-UHFFFAOYSA-N

>  <alias>  (140) 
C[C@H](CN)c1nc2ccc(Br)cc2[nH]1

>  <tags>  (140) 
{'openbind_xx01zvns2b_c1_knitwork_pure', 'fragmenstein_placed'}

>  <HIPPO Pose ID>  (140) 
38940

>  <ref_pdb>  (140) 
71

>  <smiles>  (140) 
C11823-P145

>  <fragmenstein_runtime>  (140) 
0.821451

>  <fragmenstein_outcome>  (140) 
acceptable

>  <fragmenstein_mode>  (140) 
expansion

>  <fragmenstein_error>  (140) 


>  <HIPPO Compound ID>  (140) 
11823

>  <Energy>  (140) 
28.324675

>  <scratch_subdir>  (140) 
/opt/xchem-fragalysis-2/maxwin/BulkDock/SCRATCH/511030/C11823-P145

$$$$
Cc1cc(Br)cc2[nH]c([C@@H](C)CN)nc12
     RDKit          3D

 15 16  0  0  0  0  0  0  0  0999 V2000
   -7.2905    4.8230  -13.7655 C   0  0  0  0  0  0  0  0  0  0  0  0
   -7.4868    4.7372  -15.2482 C   0  0  0  0  0  0  0  0  0  0  0  0
   -8.7538    4.4220  -15.7623 C   0  0  0  0  0  0  0  0  0  0  0  0
   -8.9697    4.3450  -17.1378 C   0  0  0  0  0  0  0  0  0  0  0  0
  -10.7106    4.2377  -17.8010 Br  0  0  0  0  0  0  0  0  0  0  0  0
   -7.9509    4.4902  -18.0689 C   0  0  0  0  0  0  0  0  0  0  0  0
   -6.7151    4.8214  -17.5451 C   0  0  0  0  0  0  0  0  0  0  0  0
   -5.5169    5.0522  -18.1588 N   0  0  0  0  0  0  0  0  0  0  0  0
   -4.5906    5.3119  -17.1815 C   0  0  0  0  0  0  0  0  0  0  0  0
   -3.1195    5.4004  -17.4629 C   0  0  1  0  0  0  0  0  0  0  0  0
   -2.8174    6.4018  -18.5783 C   0  0  0  0  0  0  0  0  0  0  0  0
   -2.3126    5.7657  -16.1933 C   0  0  0  0  0  0  0  0  0  0  0  0
   -2.5993    4.9251  -15.0199 N   0  0  0  0  0  0  0  0  0  0  0  0
   -5.1617    5.3388  -15.9908 N   0  0  0  0  0  0  0  0  0  0  0  0
   -6.4659    4.9724  -16.1886 C   0  0  0  0  0  0  0  0  0  0  0  0
  1  2  1  0
  2  3  2  0
  3  4  1  0
  4  5  1  0
  4  6  2  0
  6  7  1  0
  7  8  1  0
  8  9  1  0
  9 10  1  0
 10 11  1  6
 10 12  1  0
 12 13  1  0
  9 14  2  0
 14 15  1  0
 15  2  1  0
 15  7  2  0
M  END
>  <inchikey>  (141) 
BBSVLOOZYCBDPW-UHFFFAOYSA-N

>  <alias>  (141) 
Cc1cc(Br)cc2[nH]c([C@@H](C)CN)nc12

>  <tags>  (141) 
{'openbind_xx01zvns2b_c1_knitwork_pure', 'fragmenstein_placed'}

>  <HIPPO Pose ID>  (141) 
38941

>  <ref_pdb>  (141) 
71

>  <smiles>  (141) 
C11824-P145

>  <fragmenstein_runtime>  (141) 
1.122725

>  <fragmenstein_outcome>  (141) 
acceptable

>  <fragmenstein_mode>  (141) 
expansion

>  <fragmenstein_error>  (141) 


>  <HIPPO Compound ID>  (141) 
2852

>  <Energy>  (141) 
30.593884

>  <scratch_subdir>  (141) 
/opt/xchem-fragalysis-2/maxwin/BulkDock/SCRATCH/511030/C11824-P145

$$$$
C[C@@H](CN)c1nc2ccc(Br)cc2n1C
     RDKit          3D

 15 16  0  0  0  0  0  0  0  0999 V2000
   -2.7343    6.7713  -18.1868 C   0  0  0  0  0  0  0  0  0  0  0  0
   -3.0872    5.5756  -17.2989 C   0  0  1  0  0  0  0  0  0  0  0  0
   -2.3414    5.7352  -15.9481 C   0  0  0  0  0  0  0  0  0  0  0  0
   -2.5985    4.6559  -14.9876 N   0  0  0  0  0  0  0  0  0  0  0  0
   -4.5733    5.4477  -17.0783 C   0  0  0  0  0  0  0  0  0  0  0  0
   -5.1592    5.4348  -15.8905 N   0  0  0  0  0  0  0  0  0  0  0  0
   -6.4492    5.0430  -16.1073 C   0  0  0  0  0  0  0  0  0  0  0  0
   -7.4709    4.7722  -15.1871 C   0  0  0  0  0  0  0  0  0  0  0  0
   -8.7302    4.4253  -15.6816 C   0  0  0  0  0  0  0  0  0  0  0  0
   -8.9447    4.3638  -17.0565 C   0  0  0  0  0  0  0  0  0  0  0  0
  -10.6694    4.2012  -17.7522 Br  0  0  0  0  0  0  0  0  0  0  0  0
   -7.9303    4.5642  -17.9830 C   0  0  0  0  0  0  0  0  0  0  0  0
   -6.6920    4.9154  -17.4657 C   0  0  0  0  0  0  0  0  0  0  0  0
   -5.4950    5.1999  -18.0666 N   0  0  0  0  0  0  0  0  0  0  0  0
   -5.2862    5.1768  -19.4912 C   0  0  0  0  0  0  0  0  0  0  0  0
  2  1  1  6
  2  3  1  0
  3  4  1  0
  2  5  1  0
  5  6  2  0
  6  7  1  0
  7  8  2  0
  8  9  1  0
  9 10  2  0
 10 11  1  0
 10 12  1  0
 12 13  2  0
 13 14  1  0
 14 15  1  0
 14  5  1  0
 13  7  1  0
M  END
>  <inchikey>  (142) 
CCTBDQQIIMCABW-UHFFFAOYSA-N

>  <alias>  (142) 
C[C@@H](CN)c1nc2ccc(Br)cc2n1C

>  <tags>  (142) 
{'openbind_xx01zvns2b_c1_knitwork_pure', 'fragmenstein_placed'}

>  <HIPPO Pose ID>  (142) 
38942

>  <ref_pdb>  (142) 
71

>  <smiles>  (142) 
C11825-P145

>  <fragmenstein_runtime>  (142) 
1.066701

>  <fragmenstein_outcome>  (142) 
acceptable

>  <fragmenstein_mode>  (142) 
expansion

>  <fragmenstein_error>  (142) 


>  <HIPPO Compound ID>  (142) 
5622

>  <Energy>  (142) 
33.213849

>  <scratch_subdir>  (142) 
/opt/xchem-fragalysis-2/maxwin/BulkDock/SCRATCH/511030/C11825-P145

$$$$
C[C@H](CN)c1nc2cc(Cl)c(Br)cc2[nH]1
     RDKit          3D

 15 16  0  0  0  0  0  0  0  0999 V2000
   -2.7273    6.0128  -19.3117 C   0  0  0  0  0  0  0  0  0  0  0  0
   -3.0531    6.1457  -17.8282 C   0  0  2  0  0  0  0  0  0  0  0  0
   -2.0801    5.2921  -16.9931 C   0  0  0  0  0  0  0  0  0  0  0  0
   -2.2151    5.4672  -15.5411 N   0  0  0  0  0  0  0  0  0  0  0  0
   -4.4526    5.7437  -17.4925 C   0  0  0  0  0  0  0  0  0  0  0  0
   -4.9158    5.7347  -16.2593 N   0  0  0  0  0  0  0  0  0  0  0  0
   -6.1696    5.2343  -16.3448 C   0  0  0  0  0  0  0  0  0  0  0  0
   -7.0776    5.0231  -15.3198 C   0  0  0  0  0  0  0  0  0  0  0  0
   -8.3625    4.6379  -15.6769 C   0  0  0  0  0  0  0  0  0  0  0  0
   -9.4596    4.6187  -14.3658 Cl  0  0  0  0  0  0  0  0  0  0  0  0
   -8.6986    4.4017  -17.0191 C   0  0  0  0  0  0  0  0  0  0  0  0
  -10.4511    4.1305  -17.6294 Br  0  0  0  0  0  0  0  0  0  0  0  0
   -7.7560    4.5089  -18.0443 C   0  0  0  0  0  0  0  0  0  0  0  0
   -6.5100    4.9674  -17.6588 C   0  0  0  0  0  0  0  0  0  0  0  0
   -5.3917    5.2805  -18.3789 N   0  0  0  0  0  0  0  0  0  0  0  0
  2  1  1  6
  2  3  1  0
  3  4  1  0
  2  5  1  0
  5  6  2  0
  6  7  1  0
  7  8  2  0
  8  9  1  0
  9 10  1  0
  9 11  2  0
 11 12  1  0
 11 13  1  0
 13 14  2  0
 14 15  1  0
 15  5  1  0
 14  7  1  0
M  END
>  <inchikey>  (143) 
SZKBOGFNQDYWRV-UHFFFAOYSA-N

>  <alias>  (143) 
C[C@H](CN)c1nc2cc(Cl)c(Br)cc2[nH]1

>  <tags>  (143) 
{'openbind_xx01zvns2b_c1_knitwork_pure', 'fragmenstein_placed'}

>  <HIPPO Pose ID>  (143) 
38943

>  <ref_pdb>  (143) 
71

>  <smiles>  (143) 
C11827-P145

>  <fragmenstein_runtime>  (143) 
0.887909

>  <fragmenstein_outcome>  (143) 
acceptable

>  <fragmenstein_mode>  (143) 
expansion

>  <fragmenstein_error>  (143) 


>  <HIPPO Compound ID>  (143) 
48411

>  <Energy>  (143) 
31.243298

>  <scratch_subdir>  (143) 
/opt/xchem-fragalysis-2/maxwin/BulkDock/SCRATCH/511030/C11827-P145

$$$$
C[C@H](CN)c1nc2ccccc2n1CCCN
     RDKit          3D

 17 18  0  0  0  0  0  0  0  0999 V2000
   -2.5587    5.6658  -18.4050 C   0  0  0  0  0  0  0  0  0  0  0  0
   -3.3199    5.9394  -17.1095 C   0  0  2  0  0  0  0  0  0  0  0  0
   -2.5535    5.1906  -15.9881 C   0  0  0  0  0  0  0  0  0  0  0  0
   -2.9482    5.5146  -14.6203 N   0  0  0  0  0  0  0  0  0  0  0  0
   -4.7896    5.5511  -17.0554 C   0  0  0  0  0  0  0  0  0  0  0  0
   -5.4285    5.4499  -15.8986 N   0  0  0  0  0  0  0  0  0  0  0  0
   -6.6805    4.9885  -16.1759 C   0  0  0  0  0  0  0  0  0  0  0  0
   -7.7106    4.6462  -15.2921 C   0  0  0  0  0  0  0  0  0  0  0  0
   -8.9160    4.1852  -15.8233 C   0  0  0  0  0  0  0  0  0  0  0  0
   -9.0967    4.0768  -17.2009 C   0  0  0  0  0  0  0  0  0  0  0  0
   -8.0739    4.4143  -18.0920 C   0  0  0  0  0  0  0  0  0  0  0  0
   -6.8680    4.8720  -17.5448 C   0  0  0  0  0  0  0  0  0  0  0  0
   -5.6679    5.2866  -18.0909 N   0  0  0  0  0  0  0  0  0  0  0  0
   -5.4355    5.4323  -19.5130 C   0  0  0  0  0  0  0  0  0  0  0  0
   -5.4107    6.8982  -19.9457 C   0  0  0  0  0  0  0  0  0  0  0  0
   -4.9799    7.0342  -21.4036 C   0  0  0  0  0  0  0  0  0  0  0  0
   -4.8184    8.4350  -21.7853 N   0  0  0  0  0  0  0  0  0  0  0  0
  2  1  1  6
  2  3  1  0
  3  4  1  0
  2  5  1  0
  5  6  2  0
  6  7  1  0
  7  8  2  0
  8  9  1  0
  9 10  2  0
 10 11  1  0
 11 12  2  0
 12 13  1  0
 13 14  1  0
 14 15  1  0
 15 16  1  0
 16 17  1  0
 13  5  1  0
 12  7  1  0
M  END
>  <inchikey>  (144) 
WXVSJUBIWRTBPN-UHFFFAOYSA-N

>  <alias>  (144) 
C[C@H](CN)c1nc2ccccc2n1CCCN

>  <tags>  (144) 
{'openbind_xx01zvns2b_c1_knitwork_pure', 'fragmenstein_placed'}

>  <HIPPO Pose ID>  (144) 
38948

>  <ref_pdb>  (144) 
71

>  <smiles>  (144) 
C11831-P145

>  <fragmenstein_runtime>  (144) 
1.299434

>  <fragmenstein_outcome>  (144) 
acceptable

>  <fragmenstein_mode>  (144) 
expansion

>  <fragmenstein_error>  (144) 


>  <HIPPO Compound ID>  (144) 
771

>  <Energy>  (144) 
34.148083

>  <scratch_subdir>  (144) 
/opt/xchem-fragalysis-2/maxwin/BulkDock/SCRATCH/511030/C11831-P145

$$$$
COc1ccc2c(c1)nc([C@H](C)CN)n2CCCN
     RDKit          3D

 19 20  0  0  0  0  0  0  0  0999 V2000
   -8.7353    4.0647  -12.8699 C   0  0  0  0  0  0  0  0  0  0  0  0
   -9.3521    4.3824  -14.1291 O   0  0  0  0  0  0  0  0  0  0  0  0
   -8.4448    4.6170  -15.1319 C   0  0  0  0  0  0  0  0  0  0  0  0
   -8.8282    4.3672  -16.4552 C   0  0  0  0  0  0  0  0  0  0  0  0
   -7.9511    4.5951  -17.5386 C   0  0  0  0  0  0  0  0  0  0  0  0
   -6.6739    5.0836  -17.2259 C   0  0  0  0  0  0  0  0  0  0  0  0
   -6.2988    5.3328  -15.9153 C   0  0  0  0  0  0  0  0  0  0  0  0
   -7.1810    5.1272  -14.8616 C   0  0  0  0  0  0  0  0  0  0  0  0
   -5.0263    5.7891  -15.8346 N   0  0  0  0  0  0  0  0  0  0  0  0
   -4.5415    5.7462  -17.0587 C   0  0  0  0  0  0  0  0  0  0  0  0
   -3.0844    6.0272  -17.3505 C   0  0  2  0  0  0  0  0  0  0  0  0
   -2.4494    5.1294  -18.4048 C   0  0  0  0  0  0  0  0  0  0  0  0
   -2.2523    5.9644  -16.0321 C   0  0  0  0  0  0  0  0  0  0  0  0
   -2.5329    4.8247  -15.1458 N   0  0  0  0  0  0  0  0  0  0  0  0
   -5.5580    5.4565  -17.9521 N   0  0  0  0  0  0  0  0  0  0  0  0
   -5.4993    5.6192  -19.3930 C   0  0  0  0  0  0  0  0  0  0  0  0
   -5.3335    7.0926  -19.7848 C   0  0  0  0  0  0  0  0  0  0  0  0
   -5.1952    7.3670  -21.2784 C   0  0  0  0  0  0  0  0  0  0  0  0
   -4.1165    6.5982  -21.8905 N   0  0  0  0  0  0  0  0  0  0  0  0
  1  2  1  0
  2  3  1  0
  3  4  2  0
  4  5  1  0
  5  6  2  0
  6  7  1  0
  7  8  2  0
  7  9  1  0
  9 10  2  0
 10 11  1  0
 11 12  1  6
 11 13  1  0
 13 14  1  0
 10 15  1  0
 15 16  1  0
 16 17  1  0
 17 18  1  0
 18 19  1  0
  8  3  1  0
 15  6  1  0
M  END
>  <inchikey>  (145) 
QQBPVEYVHJGNHX-UHFFFAOYSA-N

>  <alias>  (145) 
COc1ccc2c(c1)nc([C@H](C)CN)n2CCCN

>  <tags>  (145) 
{'openbind_xx01zvns2b_c1_knitwork_pure', 'fragmenstein_placed'}

>  <HIPPO Pose ID>  (145) 
38949

>  <ref_pdb>  (145) 
71

>  <smiles>  (145) 
C11832-P145

>  <fragmenstein_runtime>  (145) 
3.149684

>  <fragmenstein_outcome>  (145) 
acceptable

>  <fragmenstein_mode>  (145) 
expansion

>  <fragmenstein_error>  (145) 


>  <HIPPO Compound ID>  (145) 
13030

>  <Energy>  (145) 
39.198715

>  <scratch_subdir>  (145) 
/opt/xchem-fragalysis-2/maxwin/BulkDock/SCRATCH/511030/C11832-P145

$$$$
C[C@@H](CN)c1nc2cc(N)ccc2n1CCCN
     RDKit          3D

 18 19  0  0  0  0  0  0  0  0999 V2000
   -2.5486    6.5587  -18.1799 C   0  0  0  0  0  0  0  0  0  0  0  0
   -3.0709    5.4855  -17.2301 C   0  0  1  0  0  0  0  0  0  0  0  0
   -2.2969    5.6379  -15.8908 C   0  0  0  0  0  0  0  0  0  0  0  0
   -2.6926    4.7014  -14.8322 N   0  0  0  0  0  0  0  0  0  0  0  0
   -4.5660    5.5251  -16.9994 C   0  0  0  0  0  0  0  0  0  0  0  0
   -5.1157    5.6584  -15.8076 N   0  0  0  0  0  0  0  0  0  0  0  0
   -6.4064    5.2431  -15.9415 C   0  0  0  0  0  0  0  0  0  0  0  0
   -7.3584    5.0579  -14.9364 C   0  0  0  0  0  0  0  0  0  0  0  0
   -8.5995    4.5208  -15.2697 C   0  0  0  0  0  0  0  0  0  0  0  0
   -9.5600    4.3577  -14.2456 N   0  0  0  0  0  0  0  0  0  0  0  0
   -8.9198    4.3077  -16.6172 C   0  0  0  0  0  0  0  0  0  0  0  0
   -7.9871    4.5306  -17.6513 C   0  0  0  0  0  0  0  0  0  0  0  0
   -6.7173    4.9816  -17.2694 C   0  0  0  0  0  0  0  0  0  0  0  0
   -5.5514    5.2856  -17.9418 N   0  0  0  0  0  0  0  0  0  0  0  0
   -5.3961    5.4205  -19.3810 C   0  0  0  0  0  0  0  0  0  0  0  0
   -5.4754    6.8984  -19.7852 C   0  0  0  0  0  0  0  0  0  0  0  0
   -4.7815    7.2471  -21.1022 C   0  0  0  0  0  0  0  0  0  0  0  0
   -5.4204    6.6934  -22.2822 N   0  0  0  0  0  0  0  0  0  0  0  0
  2  1  1  6
  2  3  1  0
  3  4  1  0
  2  5  1  0
  5  6  2  0
  6  7  1  0
  7  8  2  0
  8  9  1  0
  9 10  1  0
  9 11  2  0
 11 12  1  0
 12 13  2  0
 13 14  1  0
 14 15  1  0
 15 16  1  0
 16 17  1  0
 17 18  1  0
 14  5  1  0
 13  7  1  0
M  END
>  <inchikey>  (146) 
GYGOFUBOUMZHLV-UHFFFAOYSA-N

>  <alias>  (146) 
C[C@@H](CN)c1nc2cc(N)ccc2n1CCCN

>  <tags>  (146) 
{'openbind_xx01zvns2b_c1_knitwork_pure', 'fragmenstein_placed'}

>  <HIPPO Pose ID>  (146) 
38950

>  <ref_pdb>  (146) 
71

>  <smiles>  (146) 
C11833-P145

>  <fragmenstein_runtime>  (146) 
1.686583

>  <fragmenstein_outcome>  (146) 
acceptable

>  <fragmenstein_mode>  (146) 
expansion

>  <fragmenstein_error>  (146) 


>  <HIPPO Compound ID>  (146) 
11833

>  <Energy>  (146) 
29.521092

>  <scratch_subdir>  (146) 
/opt/xchem-fragalysis-2/maxwin/BulkDock/SCRATCH/511030/C11833-P145

$$$$
C[C@H](CN)c1nc2ccc(F)cc2n1CCCN
     RDKit          3D

 18 19  0  0  0  0  0  0  0  0999 V2000
   -2.5292    5.4309  -17.9924 C   0  0  0  0  0  0  0  0  0  0  0  0
   -3.3018    6.1586  -16.8949 C   0  0  2  0  0  0  0  0  0  0  0  0
   -2.5842    6.0028  -15.5315 C   0  0  0  0  0  0  0  0  0  0  0  0
   -2.6152    4.6471  -14.9785 N   0  0  0  0  0  0  0  0  0  0  0  0
   -4.7496    5.7372  -16.7841 C   0  0  0  0  0  0  0  0  0  0  0  0
   -5.3311    5.3370  -15.6660 N   0  0  0  0  0  0  0  0  0  0  0  0
   -6.5920    4.9435  -16.0115 C   0  0  0  0  0  0  0  0  0  0  0  0
   -7.6139    4.4311  -15.2011 C   0  0  0  0  0  0  0  0  0  0  0  0
   -8.8140    4.0543  -15.8065 C   0  0  0  0  0  0  0  0  0  0  0  0
   -8.9746    4.1591  -17.1820 C   0  0  0  0  0  0  0  0  0  0  0  0
  -10.1291    3.7659  -17.7329 F   0  0  0  0  0  0  0  0  0  0  0  0
   -7.9828    4.6954  -18.0006 C   0  0  0  0  0  0  0  0  0  0  0  0
   -6.8043    5.1130  -17.3751 C   0  0  0  0  0  0  0  0  0  0  0  0
   -5.6773    5.7795  -17.8037 N   0  0  0  0  0  0  0  0  0  0  0  0
   -5.6068    6.6542  -18.9586 C   0  0  0  0  0  0  0  0  0  0  0  0
   -5.1652    5.9621  -20.2300 C   0  0  0  0  0  0  0  0  0  0  0  0
   -5.0197    6.9318  -21.4007 C   0  0  0  0  0  0  0  0  0  0  0  0
   -4.0053    7.9530  -21.1417 N   0  0  0  0  0  0  0  0  0  0  0  0
  2  1  1  6
  2  3  1  0
  3  4  1  0
  2  5  1  0
  5  6  2  0
  6  7  1  0
  7  8  2  0
  8  9  1  0
  9 10  2  0
 10 11  1  0
 10 12  1  0
 12 13  2  0
 13 14  1  0
 14 15  1  0
 15 16  1  0
 16 17  1  0
 17 18  1  0
 14  5  1  0
 13  7  1  0
M  END
>  <inchikey>  (147) 
WQKPOXYCOFNDDC-UHFFFAOYSA-N

>  <alias>  (147) 
C[C@H](CN)c1nc2ccc(F)cc2n1CCCN

>  <tags>  (147) 
{'openbind_xx01zvns2b_c1_knitwork_pure', 'fragmenstein_placed'}

>  <HIPPO Pose ID>  (147) 
38951

>  <ref_pdb>  (147) 
71

>  <smiles>  (147) 
C11834-P145

>  <fragmenstein_runtime>  (147) 
1.618484

>  <fragmenstein_outcome>  (147) 
acceptable

>  <fragmenstein_mode>  (147) 
expansion

>  <fragmenstein_error>  (147) 


>  <HIPPO Compound ID>  (147) 
6461

>  <Energy>  (147) 
26.13782

>  <scratch_subdir>  (147) 
/opt/xchem-fragalysis-2/maxwin/BulkDock/SCRATCH/511030/C11834-P145

$$$$
C[C@@H](CN)c1nc2cc(F)ccc2n1CCCN
     RDKit          3D

 18 19  0  0  0  0  0  0  0  0999 V2000
   -2.6559    6.5604  -18.1930 C   0  0  0  0  0  0  0  0  0  0  0  0
   -3.1569    5.4684  -17.2487 C   0  0  1  0  0  0  0  0  0  0  0  0
   -2.3978    5.6448  -15.9041 C   0  0  0  0  0  0  0  0  0  0  0  0
   -2.7600    4.6940  -14.8493 N   0  0  0  0  0  0  0  0  0  0  0  0
   -4.6585    5.4531  -17.0358 C   0  0  0  0  0  0  0  0  0  0  0  0
   -5.2354    5.5049  -15.8478 N   0  0  0  0  0  0  0  0  0  0  0  0
   -6.5307    5.1109  -16.0303 C   0  0  0  0  0  0  0  0  0  0  0  0
   -7.5241    4.9013  -15.0712 C   0  0  0  0  0  0  0  0  0  0  0  0
   -8.7754    4.4919  -15.5130 C   0  0  0  0  0  0  0  0  0  0  0  0
   -9.7484    4.3471  -14.6043 F   0  0  0  0  0  0  0  0  0  0  0  0
   -9.0475    4.2781  -16.8626 C   0  0  0  0  0  0  0  0  0  0  0  0
   -8.0612    4.4907  -17.8349 C   0  0  0  0  0  0  0  0  0  0  0  0
   -6.8045    4.9138  -17.3786 C   0  0  0  0  0  0  0  0  0  0  0  0
   -5.6181    5.2311  -18.0065 N   0  0  0  0  0  0  0  0  0  0  0  0
   -5.4376    5.3556  -19.4410 C   0  0  0  0  0  0  0  0  0  0  0  0
   -5.5564    6.8188  -19.8753 C   0  0  0  0  0  0  0  0  0  0  0  0
   -5.1342    7.0260  -21.3255 C   0  0  0  0  0  0  0  0  0  0  0  0
   -5.1642    8.4499  -21.6639 N   0  0  0  0  0  0  0  0  0  0  0  0
  2  1  1  6
  2  3  1  0
  3  4  1  0
  2  5  1  0
  5  6  2  0
  6  7  1  0
  7  8  2  0
  8  9  1  0
  9 10  1  0
  9 11  2  0
 11 12  1  0
 12 13  2  0
 13 14  1  0
 14 15  1  0
 15 16  1  0
 16 17  1  0
 17 18  1  0
 14  5  1  0
 13  7  1  0
M  END
>  <inchikey>  (148) 
JHFLPNGFTBDDTE-UHFFFAOYSA-N

>  <alias>  (148) 
C[C@@H](CN)c1nc2cc(F)ccc2n1CCCN

>  <tags>  (148) 
{'openbind_xx01zvns2b_c1_knitwork_pure', 'fragmenstein_placed'}

>  <HIPPO Pose ID>  (148) 
38952

>  <ref_pdb>  (148) 
71

>  <smiles>  (148) 
C11835-P145

>  <fragmenstein_runtime>  (148) 
1.177946

>  <fragmenstein_outcome>  (148) 
acceptable

>  <fragmenstein_mode>  (148) 
expansion

>  <fragmenstein_error>  (148) 


>  <HIPPO Compound ID>  (148) 
17109

>  <Energy>  (148) 
22.31084

>  <scratch_subdir>  (148) 
/opt/xchem-fragalysis-2/maxwin/BulkDock/SCRATCH/511030/C11835-P145

$$$$
C[C@H](CN)c1nc2cc(O)ccc2n1CCCN
     RDKit          3D

 18 19  0  0  0  0  0  0  0  0999 V2000
   -2.5112    6.1590  -18.2643 C   0  0  0  0  0  0  0  0  0  0  0  0
   -3.1963    6.2009  -16.9001 C   0  0  2  0  0  0  0  0  0  0  0  0
   -2.4173    5.2220  -15.9922 C   0  0  0  0  0  0  0  0  0  0  0  0
   -2.7633    5.2559  -14.5726 N   0  0  0  0  0  0  0  0  0  0  0  0
   -4.6602    5.8273  -16.8773 C   0  0  0  0  0  0  0  0  0  0  0  0
   -5.2873    5.4869  -15.7622 N   0  0  0  0  0  0  0  0  0  0  0  0
   -6.5287    5.0645  -16.1319 C   0  0  0  0  0  0  0  0  0  0  0  0
   -7.5907    4.6330  -15.3369 C   0  0  0  0  0  0  0  0  0  0  0  0
   -8.7686    4.2894  -15.9876 C   0  0  0  0  0  0  0  0  0  0  0  0
   -9.8616    4.0593  -15.2182 O   0  0  0  0  0  0  0  0  0  0  0  0
   -8.8765    4.2420  -17.3719 C   0  0  0  0  0  0  0  0  0  0  0  0
   -7.8149    4.6656  -18.1652 C   0  0  0  0  0  0  0  0  0  0  0  0
   -6.6771    5.1388  -17.5096 C   0  0  0  0  0  0  0  0  0  0  0  0
   -5.5553    5.8261  -17.9267 N   0  0  0  0  0  0  0  0  0  0  0  0
   -5.5433    6.7387  -19.0592 C   0  0  0  0  0  0  0  0  0  0  0  0
   -5.1067    6.0906  -20.3575 C   0  0  0  0  0  0  0  0  0  0  0  0
   -5.0731    7.0545  -21.5401 C   0  0  0  0  0  0  0  0  0  0  0  0
   -4.1538    8.1682  -21.3215 N   0  0  0  0  0  0  0  0  0  0  0  0
  2  1  1  6
  2  3  1  0
  3  4  1  0
  2  5  1  0
  5  6  2  0
  6  7  1  0
  7  8  2  0
  8  9  1  0
  9 10  1  0
  9 11  2  0
 11 12  1  0
 12 13  2  0
 13 14  1  0
 14 15  1  0
 15 16  1  0
 16 17  1  0
 17 18  1  0
 14  5  1  0
 13  7  1  0
M  END
>  <inchikey>  (149) 
NXBQJMBCRNKJSO-UHFFFAOYSA-N

>  <alias>  (149) 
C[C@H](CN)c1nc2cc(O)ccc2n1CCCN

>  <tags>  (149) 
{'openbind_xx01zvns2b_c1_knitwork_pure', 'fragmenstein_placed'}

>  <HIPPO Pose ID>  (149) 
38953

>  <ref_pdb>  (149) 
71

>  <smiles>  (149) 
C11836-P145

>  <fragmenstein_runtime>  (149) 
2.772313

>  <fragmenstein_outcome>  (149) 
acceptable

>  <fragmenstein_mode>  (149) 
expansion

>  <fragmenstein_error>  (149) 


>  <HIPPO Compound ID>  (149) 
7721

>  <Energy>  (149) 
26.133772

>  <scratch_subdir>  (149) 
/opt/xchem-fragalysis-2/maxwin/BulkDock/SCRATCH/511030/C11836-P145

$$$$
C[C@H](CN)c1nc2ccc(F)cc2n1-c1ccccc1
     RDKit          3D

 20 22  0  0  0  0  0  0  0  0999 V2000
   -2.8873    7.4554  -17.3765 C   0  0  0  0  0  0  0  0  0  0  0  0
   -3.3841    6.4526  -16.3427 C   0  0  2  0  0  0  0  0  0  0  0  0
   -2.3129    5.4218  -15.9728 C   0  0  0  0  0  0  0  0  0  0  0  0
   -2.6504    4.6435  -14.7733 N   0  0  0  0  0  0  0  0  0  0  0  0
   -4.7191    5.7950  -16.5777 C   0  0  0  0  0  0  0  0  0  0  0  0
   -5.5104    5.5434  -15.5507 N   0  0  0  0  0  0  0  0  0  0  0  0
   -6.6576    5.0402  -16.0709 C   0  0  0  0  0  0  0  0  0  0  0  0
   -7.8059    4.6287  -15.3799 C   0  0  0  0  0  0  0  0  0  0  0  0
   -8.8795    4.1384  -16.1155 C   0  0  0  0  0  0  0  0  0  0  0  0
   -8.7948    4.0537  -17.4986 C   0  0  0  0  0  0  0  0  0  0  0  0
   -9.8394    3.5577  -18.1663 F   0  0  0  0  0  0  0  0  0  0  0  0
   -7.6598    4.4552  -18.2082 C   0  0  0  0  0  0  0  0  0  0  0  0
   -6.5920    4.9703  -17.4607 C   0  0  0  0  0  0  0  0  0  0  0  0
   -5.3163    5.4236  -17.7808 N   0  0  0  0  0  0  0  0  0  0  0  0
   -4.7794    5.6693  -19.0683 C   0  0  0  0  0  0  0  0  0  0  0  0
   -5.4635    6.5284  -19.9274 C   0  0  0  0  0  0  0  0  0  0  0  0
   -4.8256    7.0216  -21.0680 C   0  0  0  0  0  0  0  0  0  0  0  0
   -3.5016    6.6738  -21.3382 C   0  0  0  0  0  0  0  0  0  0  0  0
   -2.8330    5.7800  -20.5017 C   0  0  0  0  0  0  0  0  0  0  0  0
   -3.4845    5.2485  -19.3874 C   0  0  0  0  0  0  0  0  0  0  0  0
  2  1  1  6
  2  3  1  0
  3  4  1  0
  2  5  1  0
  5  6  2  0
  6  7  1  0
  7  8  2  0
  8  9  1  0
  9 10  2  0
 10 11  1  0
 10 12  1  0
 12 13  2  0
 13 14  1  0
 14 15  1  0
 15 16  2  0
 16 17  1  0
 17 18  2  0
 18 19  1  0
 19 20  2  0
 14  5  1  0
 20 15  1  0
 13  7  1  0
M  END
>  <inchikey>  (150) 
DPXOHXRSTQQAAM-UHFFFAOYSA-N

>  <alias>  (150) 
C[C@H](CN)c1nc2ccc(F)cc2n1-c1ccccc1

>  <tags>  (150) 
{'openbind_xx01zvns2b_c1_knitwork_pure', 'fragmenstein_placed'}

>  <HIPPO Pose ID>  (150) 
38954

>  <ref_pdb>  (150) 
71

>  <smiles>  (150) 
C11837-P145

>  <fragmenstein_runtime>  (150) 
1.172734

>  <fragmenstein_outcome>  (150) 
acceptable

>  <fragmenstein_mode>  (150) 
expansion

>  <fragmenstein_error>  (150) 


>  <HIPPO Compound ID>  (150) 
53731

>  <Energy>  (150) 
85.052881

>  <scratch_subdir>  (150) 
/opt/xchem-fragalysis-2/maxwin/BulkDock/SCRATCH/511030/C11837-P145

$$$$
C[C@@H](CN)c1nc2ccccc2n1-c1ccccc1F
     RDKit          3D

 20 22  0  0  0  0  0  0  0  0999 V2000
   -2.7376    7.2365  -17.2162 C   0  0  0  0  0  0  0  0  0  0  0  0
   -3.0483    5.8265  -16.7080 C   0  0  1  0  0  0  0  0  0  0  0  0
   -2.5092    5.7273  -15.2610 C   0  0  0  0  0  0  0  0  0  0  0  0
   -2.8474    4.4858  -14.5616 N   0  0  0  0  0  0  0  0  0  0  0  0
   -4.5184    5.4936  -16.7919 C   0  0  0  0  0  0  0  0  0  0  0  0
   -5.3024    5.3883  -15.7327 N   0  0  0  0  0  0  0  0  0  0  0  0
   -6.5189    4.9886  -16.1977 C   0  0  0  0  0  0  0  0  0  0  0  0
   -7.6679    4.6533  -15.4649 C   0  0  0  0  0  0  0  0  0  0  0  0
   -8.8024    4.2206  -16.1532 C   0  0  0  0  0  0  0  0  0  0  0  0
   -8.7921    4.1269  -17.5428 C   0  0  0  0  0  0  0  0  0  0  0  0
   -7.6536    4.4684  -18.2852 C   0  0  0  0  0  0  0  0  0  0  0  0
   -6.5237    4.9177  -17.5864 C   0  0  0  0  0  0  0  0  0  0  0  0
   -5.2415    5.2990  -17.9728 N   0  0  0  0  0  0  0  0  0  0  0  0
   -4.8071    5.7042  -19.2644 C   0  0  0  0  0  0  0  0  0  0  0  0
   -5.5635    6.6573  -19.9498 C   0  0  0  0  0  0  0  0  0  0  0  0
   -5.0272    7.3122  -21.0652 C   0  0  0  0  0  0  0  0  0  0  0  0
   -3.7210    7.0520  -21.4764 C   0  0  0  0  0  0  0  0  0  0  0  0
   -2.9700    6.0925  -20.8050 C   0  0  0  0  0  0  0  0  0  0  0  0
   -3.5363    5.3861  -19.7444 C   0  0  0  0  0  0  0  0  0  0  0  0
   -2.8149    4.3962  -19.2037 F   0  0  0  0  0  0  0  0  0  0  0  0
  2  1  1  1
  2  3  1  0
  3  4  1  0
  2  5  1  0
  5  6  2  0
  6  7  1  0
  7  8  2  0
  8  9  1  0
  9 10  2  0
 10 11  1  0
 11 12  2  0
 12 13  1  0
 13 14  1  0
 14 15  2  0
 15 16  1  0
 16 17  2  0
 17 18  1  0
 18 19  2  0
 19 20  1  0
 13  5  1  0
 19 14  1  0
 12  7  1  0
M  END
>  <inchikey>  (151) 
QRHJXWJEDNGVCX-UHFFFAOYSA-N

>  <alias>  (151) 
C[C@@H](CN)c1nc2ccccc2n1-c1ccccc1F

>  <tags>  (151) 
{'openbind_xx01zvns2b_c1_knitwork_pure', 'fragmenstein_placed'}

>  <HIPPO Pose ID>  (151) 
38956

>  <ref_pdb>  (151) 
71

>  <smiles>  (151) 
C11839-P145

>  <fragmenstein_runtime>  (151) 
1.18958

>  <fragmenstein_outcome>  (151) 
acceptable

>  <fragmenstein_mode>  (151) 
expansion

>  <fragmenstein_error>  (151) 


>  <HIPPO Compound ID>  (151) 
48727

>  <Energy>  (151) 
83.079486

>  <scratch_subdir>  (151) 
/opt/xchem-fragalysis-2/maxwin/BulkDock/SCRATCH/511030/C11839-P145

$$$$
C[C@@H](CN)c1nc2cccc(F)c2n1-c1ccccc1
     RDKit          3D

 20 22  0  0  0  0  0  0  0  0999 V2000
   -2.9792    6.6031  -18.3785 C   0  0  0  0  0  0  0  0  0  0  0  0
   -3.3604    5.5285  -17.3558 C   0  0  1  0  0  0  0  0  0  0  0  0
   -2.4794    5.6465  -16.0991 C   0  0  0  0  0  0  0  0  0  0  0  0
   -2.6715    4.6011  -15.0975 N   0  0  0  0  0  0  0  0  0  0  0  0
   -4.8625    5.4991  -17.1705 C   0  0  0  0  0  0  0  0  0  0  0  0
   -5.6613    5.1112  -18.1462 N   0  0  0  0  0  0  0  0  0  0  0  0
   -6.8431    4.7845  -17.5518 C   0  0  0  0  0  0  0  0  0  0  0  0
   -7.9992    4.2477  -18.1383 C   0  0  0  0  0  0  0  0  0  0  0  0
   -9.0883    3.9369  -17.3247 C   0  0  0  0  0  0  0  0  0  0  0  0
   -9.0175    4.1516  -15.9526 C   0  0  0  0  0  0  0  0  0  0  0  0
   -7.8904    4.7229  -15.3666 C   0  0  0  0  0  0  0  0  0  0  0  0
   -7.9041    4.9527  -14.0484 F   0  0  0  0  0  0  0  0  0  0  0  0
   -6.8018    5.0399  -16.1820 C   0  0  0  0  0  0  0  0  0  0  0  0
   -5.5961    5.7013  -16.0020 N   0  0  0  0  0  0  0  0  0  0  0  0
   -5.2827    6.5699  -14.9237 C   0  0  0  0  0  0  0  0  0  0  0  0
   -5.4545    6.1597  -13.5989 C   0  0  0  0  0  0  0  0  0  0  0  0
   -5.1573    7.0392  -12.5566 C   0  0  0  0  0  0  0  0  0  0  0  0
   -4.6964    8.3260  -12.8339 C   0  0  0  0  0  0  0  0  0  0  0  0
   -4.5299    8.7390  -14.1551 C   0  0  0  0  0  0  0  0  0  0  0  0
   -4.8222    7.8642  -15.2026 C   0  0  0  0  0  0  0  0  0  0  0  0
  2  1  1  6
  2  3  1  0
  3  4  1  0
  2  5  1  0
  5  6  2  0
  6  7  1  0
  7  8  2  0
  8  9  1  0
  9 10  2  0
 10 11  1  0
 11 12  1  0
 11 13  2  0
 13 14  1  0
 14 15  1  0
 15 16  2  0
 16 17  1  0
 17 18  2  0
 18 19  1  0
 19 20  2  0
 14  5  1  0
 20 15  1  0
 13  7  1  0
M  END
>  <inchikey>  (152) 
XBYZAUJOOXABCN-UHFFFAOYSA-N

>  <alias>  (152) 
C[C@@H](CN)c1nc2cccc(F)c2n1-c1ccccc1

>  <tags>  (152) 
{'openbind_xx01zvns2b_c1_knitwork_pure', 'fragmenstein_placed'}

>  <HIPPO Pose ID>  (152) 
38958

>  <ref_pdb>  (152) 
71

>  <smiles>  (152) 
C11841-P145

>  <fragmenstein_runtime>  (152) 
1.70449

>  <fragmenstein_outcome>  (152) 
acceptable

>  <fragmenstein_mode>  (152) 
expansion

>  <fragmenstein_error>  (152) 


>  <HIPPO Compound ID>  (152) 
1553

>  <Energy>  (152) 
76.384458

>  <scratch_subdir>  (152) 
/opt/xchem-fragalysis-2/maxwin/BulkDock/SCRATCH/511030/C11841-P145

$$$$
C[C@H](CN)c1nc2ccccc2n1-c1ccc(F)cc1
     RDKit          3D

 20 22  0  0  0  0  0  0  0  0999 V2000
   -2.9514    7.4544  -17.3263 C   0  0  0  0  0  0  0  0  0  0  0  0
   -3.4418    6.4397  -16.2991 C   0  0  2  0  0  0  0  0  0  0  0  0
   -2.3564    5.4229  -15.9311 C   0  0  0  0  0  0  0  0  0  0  0  0
   -2.6884    4.6244  -14.7463 N   0  0  0  0  0  0  0  0  0  0  0  0
   -4.7702    5.7728  -16.5506 C   0  0  0  0  0  0  0  0  0  0  0  0
   -5.5843    5.5219  -15.5412 N   0  0  0  0  0  0  0  0  0  0  0  0
   -6.7222    5.0166  -16.0888 C   0  0  0  0  0  0  0  0  0  0  0  0
   -7.8895    4.6017  -15.4352 C   0  0  0  0  0  0  0  0  0  0  0  0
   -8.9478    4.1209  -16.2039 C   0  0  0  0  0  0  0  0  0  0  0  0
   -8.8397    4.0394  -17.5900 C   0  0  0  0  0  0  0  0  0  0  0  0
   -7.6727    4.4386  -18.2530 C   0  0  0  0  0  0  0  0  0  0  0  0
   -6.6257    4.9499  -17.4747 C   0  0  0  0  0  0  0  0  0  0  0  0
   -5.3451    5.4030  -17.7636 N   0  0  0  0  0  0  0  0  0  0  0  0
   -4.7862    5.6471  -19.0404 C   0  0  0  0  0  0  0  0  0  0  0  0
   -5.4564    6.5075  -19.9136 C   0  0  0  0  0  0  0  0  0  0  0  0
   -4.8069    6.9755  -21.0567 C   0  0  0  0  0  0  0  0  0  0  0  0
   -3.4929    6.5939  -21.3010 C   0  0  0  0  0  0  0  0  0  0  0  0
   -2.8615    7.0500  -22.3903 F   0  0  0  0  0  0  0  0  0  0  0  0
   -2.8287    5.7126  -20.4533 C   0  0  0  0  0  0  0  0  0  0  0  0
   -3.4914    5.2072  -19.3370 C   0  0  0  0  0  0  0  0  0  0  0  0
  2  1  1  6
  2  3  1  0
  3  4  1  0
  2  5  1  0
  5  6  2  0
  6  7  1  0
  7  8  2  0
  8  9  1  0
  9 10  2  0
 10 11  1  0
 11 12  2  0
 12 13  1  0
 13 14  1  0
 14 15  2  0
 15 16  1  0
 16 17  2  0
 17 18  1  0
 17 19  1  0
 19 20  2  0
 13  5  1  0
 20 14  1  0
 12  7  1  0
M  END
>  <inchikey>  (153) 
UNEDIIQULOJPLQ-UHFFFAOYSA-N

>  <alias>  (153) 
C[C@H](CN)c1nc2ccccc2n1-c1ccc(F)cc1

>  <tags>  (153) 
{'openbind_xx01zvns2b_c1_knitwork_pure', 'fragmenstein_placed'}

>  <HIPPO Pose ID>  (153) 
38959

>  <ref_pdb>  (153) 
71

>  <smiles>  (153) 
C11842-P145

>  <fragmenstein_runtime>  (153) 
1.09338

>  <fragmenstein_outcome>  (153) 
acceptable

>  <fragmenstein_mode>  (153) 
expansion

>  <fragmenstein_error>  (153) 


>  <HIPPO Compound ID>  (153) 
55395

>  <Energy>  (153) 
87.882172

>  <scratch_subdir>  (153) 
/opt/xchem-fragalysis-2/maxwin/BulkDock/SCRATCH/511030/C11842-P145

$$$$
C[C@H](CN)c1nc2cccc(Cl)c2[nH]1
     RDKit          3D

 14 15  0  0  0  0  0  0  0  0999 V2000
   -3.1526    6.3676  -18.7991 C   0  0  0  0  0  0  0  0  0  0  0  0
   -3.5442    6.1603  -17.3330 C   0  0  2  0  0  0  0  0  0  0  0  0
   -2.5169    5.2419  -16.6560 C   0  0  0  0  0  0  0  0  0  0  0  0
   -2.7837    4.9735  -15.2325 N   0  0  0  0  0  0  0  0  0  0  0  0
   -4.9426    5.6421  -17.2136 C   0  0  0  0  0  0  0  0  0  0  0  0
   -5.7515    5.2816  -18.1855 N   0  0  0  0  0  0  0  0  0  0  0  0
   -6.9038    4.8574  -17.5757 C   0  0  0  0  0  0  0  0  0  0  0  0
   -8.0804    4.3436  -18.1365 C   0  0  0  0  0  0  0  0  0  0  0  0
   -9.1311    3.9902  -17.2851 C   0  0  0  0  0  0  0  0  0  0  0  0
   -9.0014    4.1287  -15.9019 C   0  0  0  0  0  0  0  0  0  0  0  0
   -7.8356    4.6371  -15.3306 C   0  0  0  0  0  0  0  0  0  0  0  0
   -7.6949    4.8304  -13.6334 Cl  0  0  0  0  0  0  0  0  0  0  0  0
   -6.8101    4.9970  -16.1968 C   0  0  0  0  0  0  0  0  0  0  0  0
   -5.5608    5.5116  -15.9945 N   0  0  0  0  0  0  0  0  0  0  0  0
  2  1  1  6
  2  3  1  0
  3  4  1  0
  2  5  1  0
  5  6  2  0
  6  7  1  0
  7  8  2  0
  8  9  1  0
  9 10  2  0
 10 11  1  0
 11 12  1  0
 11 13  2  0
 13 14  1  0
 14  5  1  0
 13  7  1  0
M  END
>  <inchikey>  (154) 
MKZRONLGSFHCMI-UHFFFAOYSA-N

>  <alias>  (154) 
C[C@H](CN)c1nc2cccc(Cl)c2[nH]1

>  <tags>  (154) 
{'openbind_xx01zvns2b_c1_knitwork_pure', 'fragmenstein_placed'}

>  <HIPPO Pose ID>  (154) 
38960

>  <ref_pdb>  (154) 
71

>  <smiles>  (154) 
C11843-P145

>  <fragmenstein_runtime>  (154) 
0.750046

>  <fragmenstein_outcome>  (154) 
acceptable

>  <fragmenstein_mode>  (154) 
expansion

>  <fragmenstein_error>  (154) 


>  <HIPPO Compound ID>  (154) 
1471

>  <Energy>  (154) 
16.93744

>  <scratch_subdir>  (154) 
/opt/xchem-fragalysis-2/maxwin/BulkDock/SCRATCH/511030/C11843-P145

$$$$
C[C@H](CN)c1nc2cccc(Cl)c2n1C
     RDKit          3D

 15 16  0  0  0  0  0  0  0  0999 V2000
   -2.8549    5.6323  -18.4640 C   0  0  0  0  0  0  0  0  0  0  0  0
   -3.4799    6.2237  -17.1916 C   0  0  2  0  0  0  0  0  0  0  0  0
   -2.6035    5.8862  -15.9613 C   0  0  0  0  0  0  0  0  0  0  0  0
   -2.8268    4.5825  -15.3451 N   0  0  0  0  0  0  0  0  0  0  0  0
   -4.9243    5.8038  -17.0652 C   0  0  0  0  0  0  0  0  0  0  0  0
   -5.6359    5.3057  -18.0556 N   0  0  0  0  0  0  0  0  0  0  0  0
   -6.8237    4.9032  -17.5130 C   0  0  0  0  0  0  0  0  0  0  0  0
   -7.9166    4.2854  -18.1352 C   0  0  0  0  0  0  0  0  0  0  0  0
   -9.0115    3.9130  -17.3554 C   0  0  0  0  0  0  0  0  0  0  0  0
   -8.9985    4.1239  -15.9783 C   0  0  0  0  0  0  0  0  0  0  0  0
   -7.9256    4.7568  -15.3461 C   0  0  0  0  0  0  0  0  0  0  0  0
   -7.9582    4.9623  -13.6417 Cl  0  0  0  0  0  0  0  0  0  0  0  0
   -6.8596    5.1767  -16.1482 C   0  0  0  0  0  0  0  0  0  0  0  0
   -5.7103    5.9054  -15.9340 N   0  0  0  0  0  0  0  0  0  0  0  0
   -5.4532    6.7313  -14.7780 C   0  0  0  0  0  0  0  0  0  0  0  0
  2  1  1  6
  2  3  1  0
  3  4  1  0
  2  5  1  0
  5  6  2  0
  6  7  1  0
  7  8  2  0
  8  9  1  0
  9 10  2  0
 10 11  1  0
 11 12  1  0
 11 13  2  0
 13 14  1  0
 14 15  1  0
 14  5  1  0
 13  7  1  0
M  END
>  <inchikey>  (155) 
VRHBHEAXMIYQRH-UHFFFAOYSA-N

>  <alias>  (155) 
C[C@H](CN)c1nc2cccc(Cl)c2n1C

>  <tags>  (155) 
{'openbind_xx01zvns2b_c1_knitwork_pure', 'fragmenstein_placed'}

>  <HIPPO Pose ID>  (155) 
38961

>  <ref_pdb>  (155) 
71

>  <smiles>  (155) 
C11845-P145

>  <fragmenstein_runtime>  (155) 
0.991308

>  <fragmenstein_outcome>  (155) 
acceptable

>  <fragmenstein_mode>  (155) 
expansion

>  <fragmenstein_error>  (155) 


>  <HIPPO Compound ID>  (155) 
52857

>  <Energy>  (155) 
33.050132

>  <scratch_subdir>  (155) 
/opt/xchem-fragalysis-2/maxwin/BulkDock/SCRATCH/511030/C11845-P145

$$$$
C[C@H](CN)c1nc2cc(Cl)cc(Cl)c2[nH]1
     RDKit          3D

 15 16  0  0  0  0  0  0  0  0999 V2000
   -3.0254    6.4102  -18.7653 C   0  0  0  0  0  0  0  0  0  0  0  0
   -3.3867    6.1995  -17.2921 C   0  0  2  0  0  0  0  0  0  0  0  0
   -2.3553    5.2733  -16.6388 C   0  0  0  0  0  0  0  0  0  0  0  0
   -2.6040    4.9990  -15.2117 N   0  0  0  0  0  0  0  0  0  0  0  0
   -4.7768    5.6761  -17.1452 C   0  0  0  0  0  0  0  0  0  0  0  0
   -5.6214    5.3684  -18.1025 N   0  0  0  0  0  0  0  0  0  0  0  0
   -6.7604    4.9541  -17.4676 C   0  0  0  0  0  0  0  0  0  0  0  0
   -7.9777    4.5529  -18.0130 C   0  0  0  0  0  0  0  0  0  0  0  0
   -9.0175    4.2792  -17.1285 C   0  0  0  0  0  0  0  0  0  0  0  0
  -10.5907    4.1047  -17.7664 Cl  0  0  0  0  0  0  0  0  0  0  0  0
   -8.8431    4.2898  -15.7461 C   0  0  0  0  0  0  0  0  0  0  0  0
   -7.6223    4.6623  -15.1987 C   0  0  0  0  0  0  0  0  0  0  0  0
   -7.4136    4.7641  -13.5021 Cl  0  0  0  0  0  0  0  0  0  0  0  0
   -6.6137    5.0166  -16.0874 C   0  0  0  0  0  0  0  0  0  0  0  0
   -5.3430    5.4810  -15.9099 N   0  0  0  0  0  0  0  0  0  0  0  0
  2  1  1  6
  2  3  1  0
  3  4  1  0
  2  5  1  0
  5  6  2  0
  6  7  1  0
  7  8  2  0
  8  9  1  0
  9 10  1  0
  9 11  2  0
 11 12  1  0
 12 13  1  0
 12 14  2  0
 14 15  1  0
 15  5  1  0
 14  7  1  0
M  END
>  <inchikey>  (156) 
MADJEAZAEVNYBW-UHFFFAOYSA-N

>  <alias>  (156) 
C[C@H](CN)c1nc2cc(Cl)cc(Cl)c2[nH]1

>  <tags>  (156) 
{'openbind_xx01zvns2b_c1_knitwork_pure', 'fragmenstein_placed'}

>  <HIPPO Pose ID>  (156) 
38963

>  <ref_pdb>  (156) 
71

>  <smiles>  (156) 
C11848-P145

>  <fragmenstein_runtime>  (156) 
1.037982

>  <fragmenstein_outcome>  (156) 
acceptable

>  <fragmenstein_mode>  (156) 
expansion

>  <fragmenstein_error>  (156) 


>  <HIPPO Compound ID>  (156) 
8888

>  <Energy>  (156) 
3.527438

>  <scratch_subdir>  (156) 
/opt/xchem-fragalysis-2/maxwin/BulkDock/SCRATCH/511030/C11848-P145

$$$$
C[C@@H](CN)c1nc2ccccc2n1CC#N
     RDKit          3D

 16 17  0  0  0  0  0  0  0  0999 V2000
   -2.8146    6.6264  -18.2666 C   0  0  0  0  0  0  0  0  0  0  0  0
   -3.2649    5.5086  -17.3260 C   0  0  1  0  0  0  0  0  0  0  0  0
   -2.5049    5.6917  -15.9834 C   0  0  0  0  0  0  0  0  0  0  0  0
   -2.8308    4.7146  -14.9412 N   0  0  0  0  0  0  0  0  0  0  0  0
   -4.7670    5.4448  -17.1174 C   0  0  0  0  0  0  0  0  0  0  0  0
   -5.3486    5.4460  -15.9304 N   0  0  0  0  0  0  0  0  0  0  0  0
   -6.6361    5.0305  -16.1293 C   0  0  0  0  0  0  0  0  0  0  0  0
   -7.6271    4.7342  -15.1865 C   0  0  0  0  0  0  0  0  0  0  0  0
   -8.8683    4.2872  -15.6448 C   0  0  0  0  0  0  0  0  0  0  0  0
   -9.1278    4.1620  -17.0094 C   0  0  0  0  0  0  0  0  0  0  0  0
   -8.1490    4.4583  -17.9620 C   0  0  0  0  0  0  0  0  0  0  0  0
   -6.9037    4.8842  -17.4834 C   0  0  0  0  0  0  0  0  0  0  0  0
   -5.7174    5.2235  -18.0978 N   0  0  0  0  0  0  0  0  0  0  0  0
   -5.5203    5.2686  -19.5337 C   0  0  0  0  0  0  0  0  0  0  0  0
   -5.5530    6.6481  -20.0340 C   0  0  0  0  0  0  0  0  0  0  0  0
   -5.4970    7.7505  -20.4016 N   0  0  0  0  0  0  0  0  0  0  0  0
  2  1  1  6
  2  3  1  0
  3  4  1  0
  2  5  1  0
  5  6  2  0
  6  7  1  0
  7  8  2  0
  8  9  1  0
  9 10  2  0
 10 11  1  0
 11 12  2  0
 12 13  1  0
 13 14  1  0
 14 15  1  0
 15 16  3  0
 13  5  1  0
 12  7  1  0
M  END
>  <inchikey>  (157) 
CIBISHNRDKYGCJ-UHFFFAOYSA-N

>  <alias>  (157) 
C[C@@H](CN)c1nc2ccccc2n1CC#N

>  <tags>  (157) 
{'openbind_xx01zvns2b_c1_knitwork_pure', 'fragmenstein_placed'}

>  <HIPPO Pose ID>  (157) 
38964

>  <ref_pdb>  (157) 
71

>  <smiles>  (157) 
C11850-P145

>  <fragmenstein_runtime>  (157) 
0.975775

>  <fragmenstein_outcome>  (157) 
acceptable

>  <fragmenstein_mode>  (157) 
expansion

>  <fragmenstein_error>  (157) 


>  <HIPPO Compound ID>  (157) 
53587

>  <Energy>  (157) 
38.364331

>  <scratch_subdir>  (157) 
/opt/xchem-fragalysis-2/maxwin/BulkDock/SCRATCH/511030/C11850-P145

$$$$
C[C@@H](CN)c1nc2cccc(C(=O)O)c2n1CC#N
     RDKit          3D

 19 20  0  0  0  0  0  0  0  0999 V2000
   -2.9868    6.6455  -18.3015 C   0  0  0  0  0  0  0  0  0  0  0  0
   -3.3269    5.5410  -17.2951 C   0  0  1  0  0  0  0  0  0  0  0  0
   -2.3923    5.6323  -16.0785 C   0  0  0  0  0  0  0  0  0  0  0  0
   -2.5972    4.6128  -15.0626 N   0  0  0  0  0  0  0  0  0  0  0  0
   -4.8216    5.5111  -17.0541 C   0  0  0  0  0  0  0  0  0  0  0  0
   -5.6480    5.2133  -18.0354 N   0  0  0  0  0  0  0  0  0  0  0  0
   -6.8356    4.8915  -17.4536 C   0  0  0  0  0  0  0  0  0  0  0  0
   -7.9918    4.3908  -18.0661 C   0  0  0  0  0  0  0  0  0  0  0  0
   -9.0806    4.0500  -17.2719 C   0  0  0  0  0  0  0  0  0  0  0  0
   -8.9991    4.1816  -15.8890 C   0  0  0  0  0  0  0  0  0  0  0  0
   -7.8578    4.7002  -15.2491 C   0  0  0  0  0  0  0  0  0  0  0  0
   -7.7907    4.7241  -13.7741 C   0  0  0  0  0  0  0  0  0  0  0  0
   -6.7769    4.7703  -13.1024 O   0  0  0  0  0  0  0  0  0  0  0  0
   -9.0109    4.7199  -13.2078 O   0  0  0  0  0  0  0  0  0  0  0  0
   -6.7828    5.0877  -16.0729 C   0  0  0  0  0  0  0  0  0  0  0  0
   -5.5514    5.6999  -15.8863 N   0  0  0  0  0  0  0  0  0  0  0  0
   -5.1215    6.4606  -14.7184 C   0  0  0  0  0  0  0  0  0  0  0  0
   -6.0950    7.4165  -14.1753 C   0  0  0  0  0  0  0  0  0  0  0  0
   -6.8122    8.2105  -13.7217 N   0  0  0  0  0  0  0  0  0  0  0  0
  2  1  1  6
  2  3  1  0
  3  4  1  0
  2  5  1  0
  5  6  2  0
  6  7  1  0
  7  8  2  0
  8  9  1  0
  9 10  2  0
 10 11  1  0
 11 12  1  0
 12 13  2  0
 12 14  1  0
 11 15  2  0
 15 16  1  0
 16 17  1  0
 17 18  1  0
 18 19  3  0
 16  5  1  0
 15  7  1  0
M  END
>  <inchikey>  (158) 
WUYDBDJXDOBISD-UHFFFAOYSA-N

>  <alias>  (158) 
C[C@@H](CN)c1nc2cccc(C(=O)O)c2n1CC#N

>  <tags>  (158) 
{'openbind_xx01zvns2b_c1_knitwork_pure', 'fragmenstein_placed'}

>  <HIPPO Pose ID>  (158) 
38965

>  <ref_pdb>  (158) 
71

>  <smiles>  (158) 
C11851-P145

>  <fragmenstein_runtime>  (158) 
1.530736

>  <fragmenstein_outcome>  (158) 
acceptable

>  <fragmenstein_mode>  (158) 
expansion

>  <fragmenstein_error>  (158) 


>  <HIPPO Compound ID>  (158) 
11231

>  <Energy>  (158) 
35.85982

>  <scratch_subdir>  (158) 
/opt/xchem-fragalysis-2/maxwin/BulkDock/SCRATCH/511030/C11851-P145

$$$$
C[C@@H](CN)c1nc2cccc(F)c2n1CC#N
     RDKit          3D

 17 18  0  0  0  0  0  0  0  0999 V2000
   -3.0688    6.6262  -18.4120 C   0  0  0  0  0  0  0  0  0  0  0  0
   -3.3672    5.5476  -17.3647 C   0  0  1  0  0  0  0  0  0  0  0  0
   -2.3878    5.6809  -16.1917 C   0  0  0  0  0  0  0  0  0  0  0  0
   -2.6373    4.7613  -15.0801 N   0  0  0  0  0  0  0  0  0  0  0  0
   -4.8519    5.4927  -17.0847 C   0  0  0  0  0  0  0  0  0  0  0  0
   -5.6922    5.1983  -18.0626 N   0  0  0  0  0  0  0  0  0  0  0  0
   -6.8733    4.8558  -17.4778 C   0  0  0  0  0  0  0  0  0  0  0  0
   -8.0508    4.3598  -18.0542 C   0  0  0  0  0  0  0  0  0  0  0  0
   -9.1180    4.0241  -17.2162 C   0  0  0  0  0  0  0  0  0  0  0  0
   -9.0010    4.1667  -15.8341 C   0  0  0  0  0  0  0  0  0  0  0  0
   -7.8426    4.6806  -15.2616 C   0  0  0  0  0  0  0  0  0  0  0  0
   -7.7499    4.8194  -13.9328 F   0  0  0  0  0  0  0  0  0  0  0  0
   -6.7958    5.0366  -16.1063 C   0  0  0  0  0  0  0  0  0  0  0  0
   -5.5543    5.6035  -15.8957 N   0  0  0  0  0  0  0  0  0  0  0  0
   -5.1436    6.1602  -14.6163 C   0  0  0  0  0  0  0  0  0  0  0  0
   -6.0300    7.2198  -14.1102 C   0  0  0  0  0  0  0  0  0  0  0  0
   -6.6777    8.0906  -13.6936 N   0  0  0  0  0  0  0  0  0  0  0  0
  2  1  1  6
  2  3  1  0
  3  4  1  0
  2  5  1  0
  5  6  2  0
  6  7  1  0
  7  8  2  0
  8  9  1  0
  9 10  2  0
 10 11  1  0
 11 12  1  0
 11 13  2  0
 13 14  1  0
 14 15  1  0
 15 16  1  0
 16 17  3  0
 14  5  1  0
 13  7  1  0
M  END
>  <inchikey>  (159) 
BEONFBGUBLXAPY-UHFFFAOYSA-N

>  <alias>  (159) 
C[C@@H](CN)c1nc2cccc(F)c2n1CC#N

>  <tags>  (159) 
{'openbind_xx01zvns2b_c1_knitwork_pure', 'fragmenstein_placed'}

>  <HIPPO Pose ID>  (159) 
38966

>  <ref_pdb>  (159) 
71

>  <smiles>  (159) 
C11852-P145

>  <fragmenstein_runtime>  (159) 
1.032147

>  <fragmenstein_outcome>  (159) 
acceptable

>  <fragmenstein_mode>  (159) 
expansion

>  <fragmenstein_error>  (159) 


>  <HIPPO Compound ID>  (159) 
55394

>  <Energy>  (159) 
30.362796

>  <scratch_subdir>  (159) 
/opt/xchem-fragalysis-2/maxwin/BulkDock/SCRATCH/511030/C11852-P145

$$$$
C[C@H](CN)c1nc2cc(F)ccc2n1CC#N
     RDKit          3D

 17 18  0  0  0  0  0  0  0  0999 V2000
   -2.6038    5.2081  -18.3523 C   0  0  0  0  0  0  0  0  0  0  0  0
   -3.3865    6.0100  -17.3171 C   0  0  2  0  0  0  0  0  0  0  0  0
   -2.5923    6.0433  -15.9772 C   0  0  0  0  0  0  0  0  0  0  0  0
   -2.6870    4.8311  -15.1536 N   0  0  0  0  0  0  0  0  0  0  0  0
   -4.8142    5.5542  -17.0755 C   0  0  0  0  0  0  0  0  0  0  0  0
   -5.3413    5.4784  -15.8667 N   0  0  0  0  0  0  0  0  0  0  0  0
   -6.6236    5.0459  -16.0179 C   0  0  0  0  0  0  0  0  0  0  0  0
   -7.5856    4.8171  -15.0340 C   0  0  0  0  0  0  0  0  0  0  0  0
   -8.8514    4.4320  -15.4499 C   0  0  0  0  0  0  0  0  0  0  0  0
   -9.8083    4.3123  -14.5212 F   0  0  0  0  0  0  0  0  0  0  0  0
   -9.1576    4.2313  -16.7941 C   0  0  0  0  0  0  0  0  0  0  0  0
   -8.1940    4.4366  -17.7888 C   0  0  0  0  0  0  0  0  0  0  0  0
   -6.9301    4.8674  -17.3607 C   0  0  0  0  0  0  0  0  0  0  0  0
   -5.7709    5.2287  -18.0202 N   0  0  0  0  0  0  0  0  0  0  0  0
   -5.6368    5.2971  -19.4625 C   0  0  0  0  0  0  0  0  0  0  0  0
   -5.5461    6.6841  -19.9277 C   0  0  0  0  0  0  0  0  0  0  0  0
   -5.4191    7.7914  -20.2604 N   0  0  0  0  0  0  0  0  0  0  0  0
  2  1  1  6
  2  3  1  0
  3  4  1  0
  2  5  1  0
  5  6  2  0
  6  7  1  0
  7  8  2  0
  8  9  1  0
  9 10  1  0
  9 11  2  0
 11 12  1  0
 12 13  2  0
 13 14  1  0
 14 15  1  0
 15 16  1  0
 16 17  3  0
 14  5  1  0
 13  7  1  0
M  END
>  <inchikey>  (160) 
WGUAARKWUBGPEJ-UHFFFAOYSA-N

>  <alias>  (160) 
C[C@H](CN)c1nc2cc(F)ccc2n1CC#N

>  <tags>  (160) 
{'openbind_xx01zvns2b_c1_knitwork_pure', 'fragmenstein_placed'}

>  <HIPPO Pose ID>  (160) 
38967

>  <ref_pdb>  (160) 
71

>  <smiles>  (160) 
C11853-P145

>  <fragmenstein_runtime>  (160) 
0.91351

>  <fragmenstein_outcome>  (160) 
acceptable

>  <fragmenstein_mode>  (160) 
expansion

>  <fragmenstein_error>  (160) 


>  <HIPPO Compound ID>  (160) 
16930

>  <Energy>  (160) 
31.166456

>  <scratch_subdir>  (160) 
/opt/xchem-fragalysis-2/maxwin/BulkDock/SCRATCH/511030/C11853-P145

$$$$
C[C@@H](CN)c1nc2ccc(F)cc2n1CC#N
     RDKit          3D

 17 18  0  0  0  0  0  0  0  0999 V2000
   -3.1718    6.8160  -17.9891 C   0  0  0  0  0  0  0  0  0  0  0  0
   -3.5031    5.5351  -17.2229 C   0  0  1  0  0  0  0  0  0  0  0  0
   -2.7769    5.4741  -15.8545 C   0  0  0  0  0  0  0  0  0  0  0  0
   -1.3278    5.5751  -15.9266 N   0  0  0  0  0  0  0  0  0  0  0  0
   -4.9814    5.4102  -16.9563 C   0  0  0  0  0  0  0  0  0  0  0  0
   -5.5085    5.4372  -15.7468 N   0  0  0  0  0  0  0  0  0  0  0  0
   -6.7992    5.0273  -15.8865 C   0  0  0  0  0  0  0  0  0  0  0  0
   -7.7468    4.7368  -14.9007 C   0  0  0  0  0  0  0  0  0  0  0  0
   -9.0085    4.3075  -15.3124 C   0  0  0  0  0  0  0  0  0  0  0  0
   -9.3240    4.2191  -16.6629 C   0  0  0  0  0  0  0  0  0  0  0  0
  -10.5477    3.8512  -17.0497 F   0  0  0  0  0  0  0  0  0  0  0  0
   -8.4073    4.5251  -17.6513 C   0  0  0  0  0  0  0  0  0  0  0  0
   -7.1299    4.8960  -17.2278 C   0  0  0  0  0  0  0  0  0  0  0  0
   -5.9542    5.1506  -17.8964 N   0  0  0  0  0  0  0  0  0  0  0  0
   -5.7862    5.0824  -19.3361 C   0  0  0  0  0  0  0  0  0  0  0  0
   -6.5500    3.9946  -19.9344 C   0  0  0  0  0  0  0  0  0  0  0  0
   -7.1480    3.1273  -20.4209 N   0  0  0  0  0  0  0  0  0  0  0  0
  2  1  1  1
  2  3  1  0
  3  4  1  0
  2  5  1  0
  5  6  2  0
  6  7  1  0
  7  8  2  0
  8  9  1  0
  9 10  2  0
 10 11  1  0
 10 12  1  0
 12 13  2  0
 13 14  1  0
 14 15  1  0
 15 16  1  0
 16 17  3  0
 14  5  1  0
 13  7  1  0
M  END
>  <inchikey>  (161) 
WIGYCTRCVLMTTC-UHFFFAOYSA-N

>  <alias>  (161) 
C[C@@H](CN)c1nc2ccc(F)cc2n1CC#N

>  <tags>  (161) 
{'openbind_xx01zvns2b_c1_knitwork_pure', 'fragmenstein_placed'}

>  <HIPPO Pose ID>  (161) 
38968

>  <ref_pdb>  (161) 
71

>  <smiles>  (161) 
C11854-P145

>  <fragmenstein_runtime>  (161) 
2.221359

>  <fragmenstein_outcome>  (161) 
acceptable

>  <fragmenstein_mode>  (161) 
expansion

>  <fragmenstein_error>  (161) 


>  <HIPPO Compound ID>  (161) 
13011

>  <Energy>  (161) 
33.58608

>  <scratch_subdir>  (161) 
/opt/xchem-fragalysis-2/maxwin/BulkDock/SCRATCH/511030/C11854-P145

$$$$
COc1ccc2c(c1)nc([C@H](C)CN)n2CC#N
     RDKit          3D

 18 19  0  0  0  0  0  0  0  0999 V2000
   -8.6602    3.9973  -12.5469 C   0  0  0  0  0  0  0  0  0  0  0  0
   -9.3675    4.4529  -13.7093 O   0  0  0  0  0  0  0  0  0  0  0  0
   -8.5421    4.6623  -14.7813 C   0  0  0  0  0  0  0  0  0  0  0  0
   -9.0125    4.3238  -16.0483 C   0  0  0  0  0  0  0  0  0  0  0  0
   -8.2246    4.4962  -17.1938 C   0  0  0  0  0  0  0  0  0  0  0  0
   -6.9384    5.0245  -17.0129 C   0  0  0  0  0  0  0  0  0  0  0  0
   -6.4905    5.4054  -15.7582 C   0  0  0  0  0  0  0  0  0  0  0  0
   -7.2881    5.2406  -14.6297 C   0  0  0  0  0  0  0  0  0  0  0  0
   -5.2491    5.9446  -15.8176 N   0  0  0  0  0  0  0  0  0  0  0  0
   -4.8533    5.8413  -17.0710 C   0  0  0  0  0  0  0  0  0  0  0  0
   -3.4397    6.2416  -17.4188 C   0  0  2  0  0  0  0  0  0  0  0  0
   -3.1218    6.5764  -18.8674 C   0  0  0  0  0  0  0  0  0  0  0  0
   -2.4323    5.2146  -16.8636 C   0  0  0  0  0  0  0  0  0  0  0  0
   -2.5721    4.9325  -15.4278 N   0  0  0  0  0  0  0  0  0  0  0  0
   -5.8672    5.2990  -17.8461 N   0  0  0  0  0  0  0  0  0  0  0  0
   -5.8424    5.1048  -19.2843 C   0  0  0  0  0  0  0  0  0  0  0  0
   -6.6650    4.0123  -19.7770 C   0  0  0  0  0  0  0  0  0  0  0  0
   -7.2689    3.1297  -20.2236 N   0  0  0  0  0  0  0  0  0  0  0  0
  1  2  1  0
  2  3  1  0
  3  4  2  0
  4  5  1  0
  5  6  2  0
  6  7  1  0
  7  8  2  0
  7  9  1  0
  9 10  2  0
 10 11  1  0
 11 12  1  6
 11 13  1  0
 13 14  1  0
 10 15  1  0
 15 16  1  0
 16 17  1  0
 17 18  3  0
  8  3  1  0
 15  6  1  0
M  END
>  <inchikey>  (162) 
KYBNBMMGCDTGTD-UHFFFAOYSA-N

>  <alias>  (162) 
COc1ccc2c(c1)nc([C@H](C)CN)n2CC#N

>  <tags>  (162) 
{'openbind_xx01zvns2b_c1_knitwork_pure', 'fragmenstein_placed'}

>  <HIPPO Pose ID>  (162) 
38970

>  <ref_pdb>  (162) 
71

>  <smiles>  (162) 
C11856-P145

>  <fragmenstein_runtime>  (162) 
1.487671

>  <fragmenstein_outcome>  (162) 
acceptable

>  <fragmenstein_mode>  (162) 
expansion

>  <fragmenstein_error>  (162) 


>  <HIPPO Compound ID>  (162) 
9460

>  <Energy>  (162) 
46.596307

>  <scratch_subdir>  (162) 
/opt/xchem-fragalysis-2/maxwin/BulkDock/SCRATCH/511030/C11856-P145

$$$$
CC(=O)NC[C@H]1CC(=O)CCN1
     RDKit          3D

 12 12  0  0  0  0  0  0  0  0999 V2000
   -4.3880    2.6783  -13.3798 C   0  0  0  0  0  0  0  0  0  0  0  0
   -5.8754    2.6645  -13.6565 C   0  0  0  0  0  0  0  0  0  0  0  0
   -6.5650    1.7521  -13.4235 O   0  0  0  0  0  0  0  0  0  0  0  0
   -6.2118    4.0467  -14.2780 N   0  0  0  0  0  0  0  0  0  0  0  0
   -7.4824    4.6221  -14.6516 C   0  0  0  0  0  0  0  0  0  0  0  0
   -7.8140    4.4668  -16.1514 C   0  0  1  0  0  0  0  0  0  0  0  0
   -9.2662    4.8505  -16.3857 C   0  0  0  0  0  0  0  0  0  0  0  0
   -9.6419    4.7032  -17.8334 C   0  0  0  0  0  0  0  0  0  0  0  0
  -10.8199    4.6504  -18.1844 O   0  0  0  0  0  0  0  0  0  0  0  0
   -8.5244    4.5782  -18.8259 C   0  0  0  0  0  0  0  0  0  0  0  0
   -7.3486    5.4308  -18.3812 C   0  0  0  0  0  0  0  0  0  0  0  0
   -6.8738    5.2241  -17.0018 N   0  0  0  0  0  0  0  0  0  0  0  0
  1  2  1  0
  2  3  2  0
  2  4  1  0
  4  5  1  0
  6  5  1  1
  6  7  1  0
  7  8  1  0
  8  9  2  0
  8 10  1  0
 10 11  1  0
 11 12  1  0
 12  6  1  0
M  END
>  <inchikey>  (163) 
VVVULTUCVOPADV-UHFFFAOYSA-N

>  <alias>  (163) 
CC(=O)NC[C@H]1CC(=O)CCN1

>  <tags>  (163) 
{'openbind_xx01zvns2b_c1_knitwork_pure', 'fragmenstein_placed'}

>  <HIPPO Pose ID>  (163) 
39490

>  <ref_pdb>  (163) 
71

>  <smiles>  (163) 
C55016-P22

>  <fragmenstein_runtime>  (163) 
1.300299

>  <fragmenstein_outcome>  (163) 
acceptable

>  <fragmenstein_mode>  (163) 
expansion

>  <fragmenstein_error>  (163) 


>  <HIPPO Compound ID>  (163) 
13551

>  <Energy>  (163) 
9.056684

>  <scratch_subdir>  (163) 
/opt/xchem-fragalysis-2/maxwin/BulkDock/SCRATCH/511030/C55016-P22

$$$$
C1CNC[C@@H]([C@H]2CCCNC2)C1
     RDKit          3D

 12 13  0  0  0  0  0  0  0  0999 V2000
   -7.7719    5.2960  -11.8184 C   0  0  0  0  0  0  0  0  0  0  0  0
   -6.2576    5.0914  -11.7168 C   0  0  0  0  0  0  0  0  0  0  0  0
   -5.5231    5.3996  -12.9485 N   0  0  0  0  0  0  0  0  0  0  0  0
   -6.2354    6.3510  -13.7883 C   0  0  0  0  0  0  0  0  0  0  0  0
   -7.5709    5.7776  -14.3087 C   0  0  1  0  0  0  0  0  0  0  0  0
   -7.5195    4.9603  -15.6429 C   0  0  1  0  0  0  0  0  0  0  0  0
   -8.9591    4.7817  -16.1718 C   0  0  0  0  0  0  0  0  0  0  0  0
   -9.0443    4.2255  -17.5857 C   0  0  0  0  0  0  0  0  0  0  0  0
   -8.0444    4.8612  -18.5409 C   0  0  0  0  0  0  0  0  0  0  0  0
   -6.6877    4.8706  -17.9927 N   0  0  0  0  0  0  0  0  0  0  0  0
   -6.6339    5.5925  -16.7258 C   0  0  0  0  0  0  0  0  0  0  0  0
   -8.2661    4.9342  -13.2110 C   0  0  0  0  0  0  0  0  0  0  0  0
  1  2  1  0
  2  3  1  0
  3  4  1  0
  5  4  1  1
  5  6  1  0
  6  7  1  6
  7  8  1  0
  8  9  1  0
  9 10  1  0
 10 11  1  0
  5 12  1  0
 12  1  1  0
 11  6  1  0
M  END
>  <inchikey>  (164) 
OFTSFJVOGBQUGC-UHFFFAOYSA-N

>  <alias>  (164) 
C1CNC[C@@H]([C@H]2CCCNC2)C1

>  <tags>  (164) 
{'openbind_xx01zvns2b_c1_knitwork_pure', 'fragmenstein_placed'}

>  <HIPPO Pose ID>  (164) 
39509

>  <ref_pdb>  (164) 
71

>  <smiles>  (164) 
C4609-P11

>  <fragmenstein_runtime>  (164) 
19.176529

>  <fragmenstein_outcome>  (164) 
acceptable

>  <fragmenstein_mode>  (164) 
expansion

>  <fragmenstein_error>  (164) 


>  <HIPPO Compound ID>  (164) 
3735

>  <Energy>  (164) 
12.703157

>  <scratch_subdir>  (164) 
/opt/xchem-fragalysis-2/maxwin/BulkDock/SCRATCH/511030/C4609-P11

$$$$
c1cc([C@H]2CCCNC2)c2nc[nH]c2c1
     RDKit          3D

 15 17  0  0  0  0  0  0  0  0999 V2000
   -9.4550    4.0023  -17.5988 C   0  0  0  0  0  0  0  0  0  0  0  0
   -9.0565    4.3327  -16.3046 C   0  0  0  0  0  0  0  0  0  0  0  0
   -7.7987    4.9102  -15.9897 C   0  0  0  0  0  0  0  0  0  0  0  0
   -7.6361    5.4189  -14.5526 C   0  0  1  0  0  0  0  0  0  0  0  0
   -7.7249    4.2839  -13.5096 C   0  0  0  0  0  0  0  0  0  0  0  0
   -7.2985    4.7913  -12.1379 C   0  0  0  0  0  0  0  0  0  0  0  0
   -5.8480    5.2738  -12.1612 C   0  0  0  0  0  0  0  0  0  0  0  0
   -5.3850    5.7752  -13.4604 N   0  0  0  0  0  0  0  0  0  0  0  0
   -6.4716    6.3905  -14.2328 C   0  0  0  0  0  0  0  0  0  0  0  0
   -6.8991    5.0209  -17.0773 C   0  0  0  0  0  0  0  0  0  0  0  0
   -5.5997    5.4857  -17.1333 N   0  0  0  0  0  0  0  0  0  0  0  0
   -5.2481    5.4116  -18.3985 C   0  0  0  0  0  0  0  0  0  0  0  0
   -6.2617    4.9478  -19.1828 N   0  0  0  0  0  0  0  0  0  0  0  0
   -7.3236    4.6698  -18.3612 C   0  0  0  0  0  0  0  0  0  0  0  0
   -8.5909    4.1805  -18.6655 C   0  0  0  0  0  0  0  0  0  0  0  0
  1  2  2  0
  2  3  1  0
  4  3  1  6
  4  5  1  0
  5  6  1  0
  6  7  1  0
  7  8  1  0
  8  9  1  0
  3 10  2  0
 10 11  1  0
 11 12  2  0
 12 13  1  0
 13 14  1  0
 14 15  2  0
 15  1  1  0
  9  4  1  0
 14 10  1  0
M  END
>  <inchikey>  (165) 
FJGXRTVVBLKVFN-UHFFFAOYSA-N

>  <alias>  (165) 
c1cc([C@H]2CCCNC2)c2nc[nH]c2c1

>  <tags>  (165) 
{'openbind_xx01zvns2b_c1_knitwork_pure', 'fragmenstein_placed'}

>  <HIPPO Pose ID>  (165) 
39643

>  <ref_pdb>  (165) 
71

>  <smiles>  (165) 
C2823-P7

>  <fragmenstein_runtime>  (165) 
1.349482

>  <fragmenstein_outcome>  (165) 
acceptable

>  <fragmenstein_mode>  (165) 
expansion

>  <fragmenstein_error>  (165) 


>  <HIPPO Compound ID>  (165) 
2823

>  <Energy>  (165) 
36.858113

>  <scratch_subdir>  (165) 
/opt/xchem-fragalysis-2/maxwin/BulkDock/SCRATCH/511030/C2823-P7

$$$$
CC(C)Nc1ncnc2c(Br)cccc12
     RDKit          3D

 15 16  0  0  0  0  0  0  0  0999 V2000
   -1.6885    5.9554  -14.5295 C   0  0  0  0  0  0  0  0  0  0  0  0
   -3.2043    6.0818  -14.3486 C   0  0  0  0  0  0  0  0  0  0  0  0
   -3.5461    7.5124  -13.9290 C   0  0  0  0  0  0  0  0  0  0  0  0
   -3.8494    5.7591  -15.6273 N   0  0  0  0  0  0  0  0  0  0  0  0
   -5.2184    5.3985  -15.5748 C   0  0  0  0  0  0  0  0  0  0  0  0
   -5.8263    5.3297  -14.3799 N   0  0  0  0  0  0  0  0  0  0  0  0
   -7.1127    4.9746  -14.3832 C   0  0  0  0  0  0  0  0  0  0  0  0
   -7.8482    4.7019  -15.4595 N   0  0  0  0  0  0  0  0  0  0  0  0
   -7.2403    4.7506  -16.6588 C   0  0  0  0  0  0  0  0  0  0  0  0
   -7.9259    4.4400  -17.8374 C   0  0  0  0  0  0  0  0  0  0  0  0
   -9.7558    3.9719  -17.8044 Br  0  0  0  0  0  0  0  0  0  0  0  0
   -7.3221    4.4845  -19.0927 C   0  0  0  0  0  0  0  0  0  0  0  0
   -6.0062    4.8936  -19.2099 C   0  0  0  0  0  0  0  0  0  0  0  0
   -5.2946    5.2137  -18.0623 C   0  0  0  0  0  0  0  0  0  0  0  0
   -5.8939    5.1230  -16.7795 C   0  0  0  0  0  0  0  0  0  0  0  0
  1  2  1  0
  2  3  1  0
  2  4  1  0
  4  5  1  0
  5  6  2  0
  6  7  1  0
  7  8  2  0
  8  9  1  0
  9 10  2  0
 10 11  1  0
 10 12  1  0
 12 13  2  0
 13 14  1  0
 14 15  2  0
 15  5  1  0
 15  9  1  0
M  END
>  <inchikey>  (166) 
HAZQRZQDVUQWDC-UHFFFAOYSA-N

>  <alias>  (166) 
CC(C)Nc1ncnc2c(Br)cccc12

>  <tags>  (166) 
{'openbind_xx01zvns2b_c1_knitwork_pure', 'fragmenstein_placed'}

>  <HIPPO Pose ID>  (166) 
39845

>  <ref_pdb>  (166) 
71

>  <smiles>  (166) 
C55350-P95

>  <fragmenstein_runtime>  (166) 
0.774513

>  <fragmenstein_outcome>  (166) 
acceptable

>  <fragmenstein_mode>  (166) 
expansion

>  <fragmenstein_error>  (166) 


>  <HIPPO Compound ID>  (166) 
2925

>  <Energy>  (166) 
-4.4263

>  <scratch_subdir>  (166) 
/opt/xchem-fragalysis-2/maxwin/BulkDock/SCRATCH/511030/C55350-P95

$$$$
CC(C)Nc1nc(Cl)nc2c(Br)cccc12
     RDKit          3D

 16 17  0  0  0  0  0  0  0  0999 V2000
   -2.9424    4.7055  -13.5093 C   0  0  0  0  0  0  0  0  0  0  0  0
   -3.0784    5.9258  -14.4162 C   0  0  0  0  0  0  0  0  0  0  0  0
   -3.5662    7.1706  -13.6806 C   0  0  0  0  0  0  0  0  0  0  0  0
   -3.8435    5.6496  -15.6405 N   0  0  0  0  0  0  0  0  0  0  0  0
   -5.2085    5.3094  -15.5871 C   0  0  0  0  0  0  0  0  0  0  0  0
   -5.8170    5.2404  -14.3993 N   0  0  0  0  0  0  0  0  0  0  0  0
   -7.1050    4.8994  -14.4164 C   0  0  0  0  0  0  0  0  0  0  0  0
   -7.8804    4.8075  -12.9001 Cl  0  0  0  0  0  0  0  0  0  0  0  0
   -7.8596    4.6552  -15.4817 N   0  0  0  0  0  0  0  0  0  0  0  0
   -7.2512    4.7132  -16.6755 C   0  0  0  0  0  0  0  0  0  0  0  0
   -7.9456    4.4260  -17.8535 C   0  0  0  0  0  0  0  0  0  0  0  0
   -9.7799    3.9784  -17.8180 Br  0  0  0  0  0  0  0  0  0  0  0  0
   -7.3457    4.4784  -19.1092 C   0  0  0  0  0  0  0  0  0  0  0  0
   -6.0269    4.8770  -19.2266 C   0  0  0  0  0  0  0  0  0  0  0  0
   -5.3061    5.1743  -18.0785 C   0  0  0  0  0  0  0  0  0  0  0  0
   -5.8981    5.0696  -16.7937 C   0  0  0  0  0  0  0  0  0  0  0  0
  1  2  1  0
  2  3  1  0
  2  4  1  0
  4  5  1  0
  5  6  2  0
  6  7  1  0
  7  8  1  0
  7  9  2  0
  9 10  1  0
 10 11  2  0
 11 12  1  0
 11 13  1  0
 13 14  2  0
 14 15  1  0
 15 16  2  0
 16  5  1  0
 16 10  1  0
M  END
>  <inchikey>  (167) 
RMBNLEROSAZTPA-UHFFFAOYSA-N

>  <alias>  (167) 
CC(C)Nc1nc(Cl)nc2c(Br)cccc12

>  <tags>  (167) 
{'openbind_xx01zvns2b_c1_knitwork_pure', 'fragmenstein_placed'}

>  <HIPPO Pose ID>  (167) 
39846

>  <ref_pdb>  (167) 
71

>  <smiles>  (167) 
C55351-P95

>  <fragmenstein_runtime>  (167) 
0.791029

>  <fragmenstein_outcome>  (167) 
acceptable

>  <fragmenstein_mode>  (167) 
expansion

>  <fragmenstein_error>  (167) 


>  <HIPPO Compound ID>  (167) 
13044

>  <Energy>  (167) 
-14.637438

>  <scratch_subdir>  (167) 
/opt/xchem-fragalysis-2/maxwin/BulkDock/SCRATCH/511030/C55351-P95

$$$$
CC(C)N[C@@H]1CCCN(c2ncnc3c(F)cccc23)C1
     RDKit          3D

 21 23  0  0  0  0  0  0  0  0999 V2000
   -5.2276    6.3681  -10.8678 C   0  0  0  0  0  0  0  0  0  0  0  0
   -3.8468    6.1500  -11.4922 C   0  0  0  0  0  0  0  0  0  0  0  0
   -2.7886    6.8650  -10.6493 C   0  0  0  0  0  0  0  0  0  0  0  0
   -3.8624    6.6684  -12.8668 N   0  0  0  0  0  0  0  0  0  0  0  0
   -2.7324    6.1779  -13.6882 C   0  0  2  0  0  0  0  0  0  0  0  0
   -2.0732    7.3795  -14.3891 C   0  0  0  0  0  0  0  0  0  0  0  0
   -2.6460    7.6753  -15.7777 C   0  0  0  0  0  0  0  0  0  0  0  0
   -4.0666    7.1498  -15.9478 C   0  0  0  0  0  0  0  0  0  0  0  0
   -4.0948    5.6843  -15.7737 N   0  0  0  0  0  0  0  0  0  0  0  0
   -5.4365    5.2471  -15.6331 C   0  0  0  0  0  0  0  0  0  0  0  0
   -5.9376    5.1398  -14.3870 N   0  0  0  0  0  0  0  0  0  0  0  0
   -7.2199    4.7723  -14.2906 C   0  0  0  0  0  0  0  0  0  0  0  0
   -8.0466    4.5236  -15.3048 N   0  0  0  0  0  0  0  0  0  0  0  0
   -7.5356    4.5890  -16.5443 C   0  0  0  0  0  0  0  0  0  0  0  0
   -8.3254    4.2734  -17.6497 C   0  0  0  0  0  0  0  0  0  0  0  0
   -9.6014    3.8939  -17.4703 F   0  0  0  0  0  0  0  0  0  0  0  0
   -7.8479    4.3359  -18.9554 C   0  0  0  0  0  0  0  0  0  0  0  0
   -6.5349    4.7172  -19.1885 C   0  0  0  0  0  0  0  0  0  0  0  0
   -5.7166    5.0297  -18.1089 C   0  0  0  0  0  0  0  0  0  0  0  0
   -6.2069    4.9702  -16.7798 C   0  0  0  0  0  0  0  0  0  0  0  0
   -3.1773    5.1361  -14.7482 C   0  0  0  0  0  0  0  0  0  0  0  0
  1  2  1  0
  2  3  1  0
  2  4  1  0
  5  4  1  6
  5  6  1  0
  6  7  1  0
  7  8  1  0
  8  9  1  0
  9 10  1  0
 10 11  2  0
 11 12  1  0
 12 13  2  0
 13 14  1  0
 14 15  2  0
 15 16  1  0
 15 17  1  0
 17 18  2  0
 18 19  1  0
 19 20  2  0
  9 21  1  0
 21  5  1  0
 20 10  1  0
 20 14  1  0
M  END
>  <inchikey>  (168) 
HDVPAEUGWVVVEG-UHFFFAOYSA-N

>  <alias>  (168) 
CC(C)N[C@@H]1CCCN(c2ncnc3c(F)cccc23)C1

>  <tags>  (168) 
{'openbind_xx01zvns2b_c1_knitwork_pure', 'fragmenstein_placed'}

>  <HIPPO Pose ID>  (168) 
39849

>  <ref_pdb>  (168) 
71

>  <smiles>  (168) 
C55354-P95

>  <fragmenstein_runtime>  (168) 
1.202758

>  <fragmenstein_outcome>  (168) 
acceptable

>  <fragmenstein_mode>  (168) 
expansion

>  <fragmenstein_error>  (168) 


>  <HIPPO Compound ID>  (168) 
1225

>  <Energy>  (168) 
33.059624

>  <scratch_subdir>  (168) 
/opt/xchem-fragalysis-2/maxwin/BulkDock/SCRATCH/511030/C55354-P95

$$$$
CC(C)N[C@H]1CCCN(c2ncnc3ccc(F)cc23)C1
     RDKit          3D

 21 23  0  0  0  0  0  0  0  0999 V2000
   -1.5687    4.5110  -19.5774 C   0  0  0  0  0  0  0  0  0  0  0  0
   -2.7168    5.5019  -19.4238 C   0  0  0  0  0  0  0  0  0  0  0  0
   -2.7128    6.4820  -20.5918 C   0  0  0  0  0  0  0  0  0  0  0  0
   -2.6705    6.3542  -18.2451 N   0  0  0  0  0  0  0  0  0  0  0  0
   -2.3493    5.7434  -16.9494 C   0  0  1  0  0  0  0  0  0  0  0  0
   -1.8295    6.8521  -16.0086 C   0  0  0  0  0  0  0  0  0  0  0  0
   -2.9223    7.8446  -15.6041 C   0  0  0  0  0  0  0  0  0  0  0  0
   -4.1610    7.1218  -15.0740 C   0  0  0  0  0  0  0  0  0  0  0  0
   -4.5999    6.1230  -16.0629 N   0  0  0  0  0  0  0  0  0  0  0  0
   -5.8594    5.5604  -15.7513 C   0  0  0  0  0  0  0  0  0  0  0  0
   -6.2584    5.5599  -14.4662 N   0  0  0  0  0  0  0  0  0  0  0  0
   -7.4815    5.0800  -14.2214 C   0  0  0  0  0  0  0  0  0  0  0  0
   -8.3547    4.6344  -15.1266 N   0  0  0  0  0  0  0  0  0  0  0  0
   -7.9429    4.6047  -16.3957 C   0  0  0  0  0  0  0  0  0  0  0  0
   -8.8071    4.1209  -17.3721 C   0  0  0  0  0  0  0  0  0  0  0  0
   -8.4229    4.0174  -18.7096 C   0  0  0  0  0  0  0  0  0  0  0  0
   -7.1611    4.4302  -19.0810 C   0  0  0  0  0  0  0  0  0  0  0  0
   -6.7315    4.2240  -20.3308 F   0  0  0  0  0  0  0  0  0  0  0  0
   -6.3202    5.0094  -18.1500 C   0  0  0  0  0  0  0  0  0  0  0  0
   -6.6784    5.0614  -16.7848 C   0  0  0  0  0  0  0  0  0  0  0  0
   -3.5814    5.0763  -16.2972 C   0  0  0  0  0  0  0  0  0  0  0  0
  1  2  1  0
  2  3  1  0
  2  4  1  0
  5  4  1  6
  5  6  1  0
  6  7  1  0
  7  8  1  0
  8  9  1  0
  9 10  1  0
 10 11  2  0
 11 12  1  0
 12 13  2  0
 13 14  1  0
 14 15  2  0
 15 16  1  0
 16 17  2  0
 17 18  1  0
 17 19  1  0
 19 20  2  0
  9 21  1  0
 21  5  1  0
 20 10  1  0
 20 14  1  0
M  END
>  <inchikey>  (169) 
YCRVPNCSOZHIKF-UHFFFAOYSA-N

>  <alias>  (169) 
CC(C)N[C@H]1CCCN(c2ncnc3ccc(F)cc23)C1

>  <tags>  (169) 
{'openbind_xx01zvns2b_c1_knitwork_pure', 'fragmenstein_placed'}

>  <HIPPO Pose ID>  (169) 
39851

>  <ref_pdb>  (169) 
71

>  <smiles>  (169) 
C55356-P95

>  <fragmenstein_runtime>  (169) 
2.16453

>  <fragmenstein_outcome>  (169) 
acceptable

>  <fragmenstein_mode>  (169) 
expansion

>  <fragmenstein_error>  (169) 


>  <HIPPO Compound ID>  (169) 
10180

>  <Energy>  (169) 
7.039054

>  <scratch_subdir>  (169) 
/opt/xchem-fragalysis-2/maxwin/BulkDock/SCRATCH/511030/C55356-P95

$$$$
CC(C)N[C@H]1CCCN(c2nc(C(F)F)nc3ccccc23)C1
     RDKit          3D

 23 25  0  0  0  0  0  0  0  0999 V2000
   -2.1993    7.0138  -19.4171 C   0  0  0  0  0  0  0  0  0  0  0  0
   -1.7816    5.6099  -18.9967 C   0  0  0  0  0  0  0  0  0  0  0  0
   -1.5482    4.7480  -20.2298 C   0  0  0  0  0  0  0  0  0  0  0  0
   -2.7875    4.8996  -18.2411 N   0  0  0  0  0  0  0  0  0  0  0  0
   -3.1354    5.3679  -16.9080 C   0  0  1  0  0  0  0  0  0  0  0  0
   -2.0155    5.5659  -15.8624 C   0  0  0  0  0  0  0  0  0  0  0  0
   -2.5209    6.3534  -14.6318 C   0  0  0  0  0  0  0  0  0  0  0  0
   -4.0263    6.1586  -14.3745 C   0  0  0  0  0  0  0  0  0  0  0  0
   -4.8465    6.3960  -15.6017 N   0  0  0  0  0  0  0  0  0  0  0  0
   -6.0332    5.6474  -15.6040 C   0  0  0  0  0  0  0  0  0  0  0  0
   -6.5212    5.4517  -14.3637 N   0  0  0  0  0  0  0  0  0  0  0  0
   -7.6831    4.8066  -14.1984 C   0  0  0  0  0  0  0  0  0  0  0  0
   -8.1139    4.4635  -12.7899 C   0  0  0  0  0  0  0  0  0  0  0  0
   -7.3825    3.4638  -12.2256 F   0  0  0  0  0  0  0  0  0  0  0  0
   -8.0207    5.5266  -11.9324 F   0  0  0  0  0  0  0  0  0  0  0  0
   -8.4758    4.4444  -15.2098 N   0  0  0  0  0  0  0  0  0  0  0  0
   -8.0001    4.5818  -16.4396 C   0  0  0  0  0  0  0  0  0  0  0  0
   -8.8361    4.1243  -17.4495 C   0  0  0  0  0  0  0  0  0  0  0  0
   -8.4547    4.1164  -18.7841 C   0  0  0  0  0  0  0  0  0  0  0  0
   -7.2001    4.5676  -19.1162 C   0  0  0  0  0  0  0  0  0  0  0  0
   -6.3803    5.0904  -18.1214 C   0  0  0  0  0  0  0  0  0  0  0  0
   -6.7453    5.1397  -16.7396 C   0  0  0  0  0  0  0  0  0  0  0  0
   -4.0549    6.6020  -16.8009 C   0  0  0  0  0  0  0  0  0  0  0  0
  1  2  1  0
  2  3  1  0
  2  4  1  0
  5  4  1  6
  5  6  1  0
  6  7  1  0
  7  8  1  0
  8  9  1  0
  9 10  1  0
 10 11  2  0
 11 12  1  0
 12 13  1  0
 13 14  1  0
 13 15  1  0
 12 16  2  0
 16 17  1  0
 17 18  2  0
 18 19  1  0
 19 20  2  0
 20 21  1  0
 21 22  2  0
  9 23  1  0
 23  5  1  0
 22 10  1  0
 22 17  1  0
M  END
>  <inchikey>  (170) 
MDASQFZPBVYFSS-UHFFFAOYSA-N

>  <alias>  (170) 
CC(C)N[C@H]1CCCN(c2nc(C(F)F)nc3ccccc23)C1

>  <tags>  (170) 
{'openbind_xx01zvns2b_c1_knitwork_pure', 'fragmenstein_placed'}

>  <HIPPO Pose ID>  (170) 
39855

>  <ref_pdb>  (170) 
71

>  <smiles>  (170) 
C55360-P95

>  <fragmenstein_runtime>  (170) 
3.310744

>  <fragmenstein_outcome>  (170) 
acceptable

>  <fragmenstein_mode>  (170) 
expansion

>  <fragmenstein_error>  (170) 


>  <HIPPO Compound ID>  (170) 
10728

>  <Energy>  (170) 
109.140526

>  <scratch_subdir>  (170) 
/opt/xchem-fragalysis-2/maxwin/BulkDock/SCRATCH/511030/C55360-P95

$$$$
CC(C)N[C@@H]1CCCN(c2ncnc3c(C(F)(F)F)cccc23)C1
     RDKit          3D

 24 26  0  0  0  0  0  0  0  0999 V2000
   -3.2563   10.5023  -13.1019 C   0  0  0  0  0  0  0  0  0  0  0  0
   -2.3925   10.4328  -14.3626 C   0  0  0  0  0  0  0  0  0  0  0  0
   -2.2845   11.8260  -14.9895 C   0  0  0  0  0  0  0  0  0  0  0  0
   -2.9430    9.5312  -15.3831 N   0  0  0  0  0  0  0  0  0  0  0  0
   -2.9717    8.1007  -15.0225 C   0  0  2  0  0  0  0  0  0  0  0  0
   -1.5659    7.5394  -14.7253 C   0  0  0  0  0  0  0  0  0  0  0  0
   -1.4963    6.0114  -14.8311 C   0  0  0  0  0  0  0  0  0  0  0  0
   -2.8765    5.3778  -14.6903 C   0  0  0  0  0  0  0  0  0  0  0  0
   -3.7286    5.8290  -15.7985 N   0  0  0  0  0  0  0  0  0  0  0  0
   -5.0740    5.4057  -15.6785 C   0  0  0  0  0  0  0  0  0  0  0  0
   -5.5902    5.2896  -14.4414 N   0  0  0  0  0  0  0  0  0  0  0  0
   -6.8722    4.9337  -14.3668 C   0  0  0  0  0  0  0  0  0  0  0  0
   -7.6815    4.6983  -15.3988 N   0  0  0  0  0  0  0  0  0  0  0  0
   -7.1674    4.7537  -16.6331 C   0  0  0  0  0  0  0  0  0  0  0  0
   -7.9458    4.4272  -17.7442 C   0  0  0  0  0  0  0  0  0  0  0  0
   -9.3628    3.9548  -17.6075 C   0  0  0  0  0  0  0  0  0  0  0  0
   -9.5360    2.7253  -18.1697 F   0  0  0  0  0  0  0  0  0  0  0  0
   -9.8165    3.8357  -16.3383 F   0  0  0  0  0  0  0  0  0  0  0  0
  -10.2449    4.7655  -18.2550 F   0  0  0  0  0  0  0  0  0  0  0  0
   -7.4142    4.4965  -19.0418 C   0  0  0  0  0  0  0  0  0  0  0  0
   -6.1059    4.8958  -19.2493 C   0  0  0  0  0  0  0  0  0  0  0  0
   -5.3145    5.2031  -18.1541 C   0  0  0  0  0  0  0  0  0  0  0  0
   -5.8323    5.1356  -16.8388 C   0  0  0  0  0  0  0  0  0  0  0  0
   -3.6327    7.2640  -16.1498 C   0  0  0  0  0  0  0  0  0  0  0  0
  1  2  1  0
  2  3  1  0
  2  4  1  0
  5  4  1  6
  5  6  1  0
  6  7  1  0
  7  8  1  0
  8  9  1  0
  9 10  1  0
 10 11  2  0
 11 12  1  0
 12 13  2  0
 13 14  1  0
 14 15  2  0
 15 16  1  0
 16 17  1  0
 16 18  1  0
 16 19  1  0
 15 20  1  0
 20 21  2  0
 21 22  1  0
 22 23  2  0
  9 24  1  0
 24  5  1  0
 23 10  1  0
 23 14  1  0
M  END
>  <inchikey>  (171) 
JUGARNQQBIYKQG-UHFFFAOYSA-N

>  <alias>  (171) 
CC(C)N[C@@H]1CCCN(c2ncnc3c(C(F)(F)F)cccc23)C1

>  <tags>  (171) 
{'openbind_xx01zvns2b_c1_knitwork_pure', 'fragmenstein_placed'}

>  <HIPPO Pose ID>  (171) 
39856

>  <ref_pdb>  (171) 
71

>  <smiles>  (171) 
C55361-P95

>  <fragmenstein_runtime>  (171) 
1.164214

>  <fragmenstein_outcome>  (171) 
acceptable

>  <fragmenstein_mode>  (171) 
expansion

>  <fragmenstein_error>  (171) 


>  <HIPPO Compound ID>  (171) 
54617

>  <Energy>  (171) 
27.199014

>  <scratch_subdir>  (171) 
/opt/xchem-fragalysis-2/maxwin/BulkDock/SCRATCH/511030/C55361-P95

$$$$
Cc1nccn1CCC(=O)N=[S@@](C)(=O)c1cnn2c1CNCC2
     RDKit          3D

 23 25  0  0  0  0  0  0  0  0999 V2000
   -4.9091    5.1797  -15.3906 C   0  0  0  0  0  0  0  0  0  0  0  0
   -5.8666    5.2219  -16.5252 C   0  0  0  0  0  0  0  0  0  0  0  0
   -5.5943    5.6845  -17.7287 N   0  0  0  0  0  0  0  0  0  0  0  0
   -6.7108    5.4379  -18.4829 C   0  0  0  0  0  0  0  0  0  0  0  0
   -7.7046    4.8818  -17.7151 C   0  0  0  0  0  0  0  0  0  0  0  0
   -7.1593    4.7471  -16.4673 N   0  0  0  0  0  0  0  0  0  0  0  0
   -7.7545    4.0081  -15.3686 C   0  0  0  0  0  0  0  0  0  0  0  0
   -8.0529    4.8098  -14.1166 C   0  0  0  0  0  0  0  0  0  0  0  0
   -7.6036    4.0123  -12.8935 C   0  0  0  0  0  0  0  0  0  0  0  0
   -7.7422    2.7956  -12.8461 O   0  0  0  0  0  0  0  0  0  0  0  0
   -6.9467    4.6943  -11.8621 N   0  0  0  0  0  0  0  0  0  0  0  0
   -7.5783    5.9154  -11.2064 S   0  0  1  0  0  0  0  0  0  0  0  0
   -6.2594    7.0768  -10.9319 C   0  0  0  0  0  0  0  0  0  0  0  0
   -8.7179    6.6581  -11.6988 O   0  0  0  0  0  0  0  0  0  0  0  0
   -8.0071    5.4125   -9.6260 C   0  0  0  0  0  0  0  0  0  0  0  0
   -8.2599    6.3348   -8.5894 C   0  0  0  0  0  0  0  0  0  0  0  0
   -8.5418    5.7455   -7.4263 N   0  0  0  0  0  0  0  0  0  0  0  0
   -8.5372    4.4361   -7.7426 N   0  0  0  0  0  0  0  0  0  0  0  0
   -8.2106    4.1716   -9.0494 C   0  0  0  0  0  0  0  0  0  0  0  0
   -8.1903    2.7677   -9.5442 C   0  0  0  0  0  0  0  0  0  0  0  0
   -8.1654    1.8073   -8.4391 N   0  0  0  0  0  0  0  0  0  0  0  0
   -9.1521    2.1071   -7.4081 C   0  0  0  0  0  0  0  0  0  0  0  0
   -8.8473    3.4361   -6.7364 C   0  0  0  0  0  0  0  0  0  0  0  0
  1  2  1  0
  2  3  2  0
  3  4  1  0
  4  5  2  0
  5  6  1  0
  6  7  1  0
  7  8  1  0
  8  9  1  0
  9 10  2  0
  9 11  1  0
 11 12  2  0
 12 13  1  1
 12 14  2  0
 12 15  1  0
 15 16  1  0
 16 17  2  0
 17 18  1  0
 18 19  1  0
 19 20  1  0
 20 21  1  0
 21 22  1  0
 22 23  1  0
  6  2  1  0
 19 15  2  0
 23 18  1  0
M  END
>  <inchikey>  (172) 
HNNBCZCRFMNSIP-UHFFFAOYSA-N

>  <alias>  (172) 
Cc1nccn1CCC(=O)N=[S@@](C)(=O)c1cnn2c1CNCC2

>  <tags>  (172) 
{'openbind_xx01zvns2b_c1_knitwork_pure', 'fragmenstein_placed'}

>  <HIPPO Pose ID>  (172) 
39938

>  <ref_pdb>  (172) 
71

>  <smiles>  (172) 
C10140-P25

>  <fragmenstein_runtime>  (172) 
3.732856

>  <fragmenstein_outcome>  (172) 
acceptable

>  <fragmenstein_mode>  (172) 
expansion

>  <fragmenstein_error>  (172) 


>  <HIPPO Compound ID>  (172) 
52886

>  <Energy>  (172) 
-52.120944

>  <scratch_subdir>  (172) 
/opt/xchem-fragalysis-2/maxwin/BulkDock/SCRATCH/511030/C10140-P25

$$$$
O=C(Nc1ccc(-c2ncc[nH]2)cc1)c1cnn2c1CNCC2
     RDKit          3D

 23 26  0  0  0  0  0  0  0  0999 V2000
   -8.7553    6.9593  -10.3907 O   0  0  0  0  0  0  0  0  0  0  0  0
   -8.1765    5.9702  -10.1778 C   0  0  0  0  0  0  0  0  0  0  0  0
   -7.3844    5.0551  -11.1257 N   0  0  0  0  0  0  0  0  0  0  0  0
   -7.2213    5.1083  -12.4967 C   0  0  0  0  0  0  0  0  0  0  0  0
   -6.2700    4.2964  -13.1095 C   0  0  0  0  0  0  0  0  0  0  0  0
   -6.1706    4.2805  -14.5018 C   0  0  0  0  0  0  0  0  0  0  0  0
   -7.0678    5.0196  -15.2782 C   0  0  0  0  0  0  0  0  0  0  0  0
   -7.1323    4.8946  -16.7242 C   0  0  0  0  0  0  0  0  0  0  0  0
   -8.2535    4.8190  -17.4107 N   0  0  0  0  0  0  0  0  0  0  0  0
   -7.8864    4.6423  -18.7111 C   0  0  0  0  0  0  0  0  0  0  0  0
   -6.5212    4.7001  -18.8435 C   0  0  0  0  0  0  0  0  0  0  0  0
   -6.0518    4.8388  -17.5693 N   0  0  0  0  0  0  0  0  0  0  0  0
   -8.0146    5.8293  -14.6443 C   0  0  0  0  0  0  0  0  0  0  0  0
   -8.0671    5.9070  -13.2600 C   0  0  0  0  0  0  0  0  0  0  0  0
   -8.1858    5.4108   -8.8403 C   0  0  0  0  0  0  0  0  0  0  0  0
   -8.1429    6.1620   -7.6490 C   0  0  0  0  0  0  0  0  0  0  0  0
   -8.2691    5.4079   -6.5578 N   0  0  0  0  0  0  0  0  0  0  0  0
   -8.4405    4.1711   -7.0598 N   0  0  0  0  0  0  0  0  0  0  0  0
   -8.3895    4.1004   -8.4257 C   0  0  0  0  0  0  0  0  0  0  0  0
   -8.6934    2.8201   -9.1354 C   0  0  0  0  0  0  0  0  0  0  0  0
   -8.8710    1.6827   -8.2363 N   0  0  0  0  0  0  0  0  0  0  0  0
   -9.5292    2.0132   -6.9783 C   0  0  0  0  0  0  0  0  0  0  0  0
   -8.7586    3.0581   -6.1892 C   0  0  0  0  0  0  0  0  0  0  0  0
  1  2  2  0
  2  3  1  0
  3  4  1  0
  4  5  2  0
  5  6  1  0
  6  7  2  0
  7  8  1  0
  8  9  2  0
  9 10  1  0
 10 11  2  0
 11 12  1  0
  7 13  1  0
 13 14  2  0
  2 15  1  0
 15 16  1  0
 16 17  2  0
 17 18  1  0
 18 19  1  0
 19 20  1  0
 20 21  1  0
 21 22  1  0
 22 23  1  0
 14  4  1  0
 19 15  2  0
 12  8  1  0
 23 18  1  0
M  END
>  <inchikey>  (173) 
VAIKOWWDONVLFX-UHFFFAOYSA-N

>  <alias>  (173) 
O=C(Nc1ccc(-c2ncc[nH]2)cc1)c1cnn2c1CNCC2

>  <tags>  (173) 
{'openbind_xx01zvns2b_c1_knitwork_pure', 'fragmenstein_placed'}

>  <HIPPO Pose ID>  (173) 
39942

>  <ref_pdb>  (173) 
71

>  <smiles>  (173) 
C7144-P25

>  <fragmenstein_runtime>  (173) 
2.81147

>  <fragmenstein_outcome>  (173) 
acceptable

>  <fragmenstein_mode>  (173) 
expansion

>  <fragmenstein_error>  (173) 


>  <HIPPO Compound ID>  (173) 
49238

>  <Energy>  (173) 
27.237606

>  <scratch_subdir>  (173) 
/opt/xchem-fragalysis-2/maxwin/BulkDock/SCRATCH/511030/C7144-P25

$$$$
C[C@@H](C(=O)N=[S@](C)(=O)c1cnn2c1CNCC2)n1ccnc1
     RDKit          3D

 22 24  0  0  0  0  0  0  0  0999 V2000
   -6.3459    3.7170  -13.9711 C   0  0  0  0  0  0  0  0  0  0  0  0
   -7.5906    4.2128  -14.7117 C   0  0  1  0  0  0  0  0  0  0  0  0
   -8.4584    5.1361  -13.8426 C   0  0  0  0  0  0  0  0  0  0  0  0
   -9.1806    5.9977  -14.3422 O   0  0  0  0  0  0  0  0  0  0  0  0
   -8.4677    4.9784  -12.4426 N   0  0  0  0  0  0  0  0  0  0  0  0
   -7.6809    5.9637  -11.5732 S   0  0  2  0  0  0  0  0  0  0  0  0
   -8.3618    7.5921  -11.7633 C   0  0  0  0  0  0  0  0  0  0  0  0
   -6.2396    6.1024  -11.5553 O   0  0  0  0  0  0  0  0  0  0  0  0
   -8.0783    5.4953   -9.9714 C   0  0  0  0  0  0  0  0  0  0  0  0
   -8.1741    6.3777   -8.8766 C   0  0  0  0  0  0  0  0  0  0  0  0
   -8.4603    5.7575   -7.7275 N   0  0  0  0  0  0  0  0  0  0  0  0
   -8.4963    4.4569   -8.0892 N   0  0  0  0  0  0  0  0  0  0  0  0
   -8.2802    4.2442   -9.4253 C   0  0  0  0  0  0  0  0  0  0  0  0
   -8.2901    2.8693   -9.9763 C   0  0  0  0  0  0  0  0  0  0  0  0
   -8.0214    1.9046   -8.9152 N   0  0  0  0  0  0  0  0  0  0  0  0
   -8.9264    2.0678   -7.7802 C   0  0  0  0  0  0  0  0  0  0  0  0
   -8.6951    3.4128   -7.0995 C   0  0  0  0  0  0  0  0  0  0  0  0
   -7.2537    4.8227  -16.0031 N   0  0  0  0  0  0  0  0  0  0  0  0
   -7.8485    4.5607  -17.2103 C   0  0  0  0  0  0  0  0  0  0  0  0
   -7.0859    5.2246  -18.1432 C   0  0  0  0  0  0  0  0  0  0  0  0
   -6.0838    5.9343  -17.5309 N   0  0  0  0  0  0  0  0  0  0  0  0
   -6.2125    5.6753  -16.2493 C   0  0  0  0  0  0  0  0  0  0  0  0
  2  1  1  1
  2  3  1  0
  3  4  2  0
  3  5  1  0
  5  6  2  0
  6  7  1  6
  6  8  2  0
  6  9  1  0
  9 10  1  0
 10 11  2  0
 11 12  1  0
 12 13  1  0
 13 14  1  0
 14 15  1  0
 15 16  1  0
 16 17  1  0
  2 18  1  0
 18 19  1  0
 19 20  2  0
 20 21  1  0
 21 22  2  0
 13  9  2  0
 22 18  1  0
 17 12  1  0
M  END
>  <inchikey>  (174) 
KRCISRNAFNLKPL-UHFFFAOYSA-N

>  <alias>  (174) 
C[C@@H](C(=O)N=[S@](C)(=O)c1cnn2c1CNCC2)n1ccnc1

>  <tags>  (174) 
{'openbind_xx01zvns2b_c1_knitwork_pure', 'fragmenstein_placed'}

>  <HIPPO Pose ID>  (174) 
39943

>  <ref_pdb>  (174) 
71

>  <smiles>  (174) 
C10143-P25

>  <fragmenstein_runtime>  (174) 
2.642184

>  <fragmenstein_outcome>  (174) 
acceptable

>  <fragmenstein_mode>  (174) 
expansion

>  <fragmenstein_error>  (174) 


>  <HIPPO Compound ID>  (174) 
52892

>  <Energy>  (174) 
-26.41044

>  <scratch_subdir>  (174) 
/opt/xchem-fragalysis-2/maxwin/BulkDock/SCRATCH/511030/C10143-P25

$$$$
O=C(NCCc1ncc[nH]1)c1cnn2c1CNCC2
     RDKit          3D

 19 21  0  0  0  0  0  0  0  0999 V2000
   -8.7589    6.3700  -12.3116 O   0  0  0  0  0  0  0  0  0  0  0  0
   -8.1531    5.4805  -11.8650 C   0  0  0  0  0  0  0  0  0  0  0  0
   -7.3183    4.3941  -12.5619 N   0  0  0  0  0  0  0  0  0  0  0  0
   -7.1271    4.1122  -13.9708 C   0  0  0  0  0  0  0  0  0  0  0  0
   -6.7921    5.3481  -14.8114 C   0  0  0  0  0  0  0  0  0  0  0  0
   -6.8915    5.1030  -16.2860 C   0  0  0  0  0  0  0  0  0  0  0  0
   -5.9453    5.2675  -17.1921 N   0  0  0  0  0  0  0  0  0  0  0  0
   -6.5376    4.9898  -18.4011 C   0  0  0  0  0  0  0  0  0  0  0  0
   -7.8616    4.6715  -18.2312 C   0  0  0  0  0  0  0  0  0  0  0  0
   -8.0745    4.7349  -16.8853 N   0  0  0  0  0  0  0  0  0  0  0  0
   -8.1641    5.2851  -10.4083 C   0  0  0  0  0  0  0  0  0  0  0  0
   -8.2214    6.3150   -9.4326 C   0  0  0  0  0  0  0  0  0  0  0  0
   -8.3129    5.8630   -8.1779 N   0  0  0  0  0  0  0  0  0  0  0  0
   -8.3551    4.5265   -8.3438 N   0  0  0  0  0  0  0  0  0  0  0  0
   -8.2660    4.1235   -9.6531 C   0  0  0  0  0  0  0  0  0  0  0  0
   -8.4011    2.6801   -9.9789 C   0  0  0  0  0  0  0  0  0  0  0  0
   -8.0715    1.8661   -8.8169 N   0  0  0  0  0  0  0  0  0  0  0  0
   -8.8699    2.2247   -7.6527 C   0  0  0  0  0  0  0  0  0  0  0  0
   -8.5187    3.6406   -7.2015 C   0  0  0  0  0  0  0  0  0  0  0  0
  1  2  2  0
  2  3  1  0
  3  4  1  0
  4  5  1  0
  5  6  1  0
  6  7  2  0
  7  8  1  0
  8  9  2  0
  9 10  1  0
  2 11  1  0
 11 12  1  0
 12 13  2  0
 13 14  1  0
 14 15  1  0
 15 16  1  0
 16 17  1  0
 17 18  1  0
 18 19  1  0
 10  6  1  0
 15 11  2  0
 19 14  1  0
M  END
>  <inchikey>  (175) 
ILXSDQZOCNBEHD-UHFFFAOYSA-N

>  <alias>  (175) 
O=C(NCCc1ncc[nH]1)c1cnn2c1CNCC2

>  <tags>  (175) 
{'openbind_xx01zvns2b_c1_knitwork_pure', 'fragmenstein_placed'}

>  <HIPPO Pose ID>  (175) 
39948

>  <ref_pdb>  (175) 
71

>  <smiles>  (175) 
C10148-P25

>  <fragmenstein_runtime>  (175) 
5.04525

>  <fragmenstein_outcome>  (175) 
acceptable

>  <fragmenstein_mode>  (175) 
expansion

>  <fragmenstein_error>  (175) 


>  <HIPPO Compound ID>  (175) 
50193

>  <Energy>  (175) 
2.344289

>  <scratch_subdir>  (175) 
/opt/xchem-fragalysis-2/maxwin/BulkDock/SCRATCH/511030/C10148-P25

$$$$
Cn1ccnc1CCNC(=O)c1cnn2c1CNCC2
     RDKit          3D

 20 22  0  0  0  0  0  0  0  0999 V2000
   -4.6633    5.1137  -16.6032 C   0  0  0  0  0  0  0  0  0  0  0  0
   -6.0547    5.0197  -16.9645 N   0  0  0  0  0  0  0  0  0  0  0  0
   -6.5365    4.9015  -18.2386 C   0  0  0  0  0  0  0  0  0  0  0  0
   -7.9003    4.8390  -18.0999 C   0  0  0  0  0  0  0  0  0  0  0  0
   -8.2537    4.9409  -16.7801 N   0  0  0  0  0  0  0  0  0  0  0  0
   -7.1274    5.0357  -16.0991 C   0  0  0  0  0  0  0  0  0  0  0  0
   -7.0362    5.1891  -14.6044 C   0  0  0  0  0  0  0  0  0  0  0  0
   -7.9798    4.2264  -13.8719 C   0  0  0  0  0  0  0  0  0  0  0  0
   -8.1162    4.4394  -12.4381 N   0  0  0  0  0  0  0  0  0  0  0  0
   -7.3085    5.3295  -11.4788 C   0  0  0  0  0  0  0  0  0  0  0  0
   -6.4547    6.0927  -11.6949 O   0  0  0  0  0  0  0  0  0  0  0  0
   -7.7839    5.1857  -10.0944 C   0  0  0  0  0  0  0  0  0  0  0  0
   -7.8789    6.2461   -9.1545 C   0  0  0  0  0  0  0  0  0  0  0  0
   -8.3015    5.8578   -7.9484 N   0  0  0  0  0  0  0  0  0  0  0  0
   -8.4493    4.5300   -8.0970 N   0  0  0  0  0  0  0  0  0  0  0  0
   -8.1670    4.0707   -9.3588 C   0  0  0  0  0  0  0  0  0  0  0  0
   -8.2719    2.6164   -9.6512 C   0  0  0  0  0  0  0  0  0  0  0  0
   -8.2164    1.8120   -8.4321 N   0  0  0  0  0  0  0  0  0  0  0  0
   -9.1401    2.2885   -7.4093 C   0  0  0  0  0  0  0  0  0  0  0  0
   -8.7792    3.6953   -6.9543 C   0  0  0  0  0  0  0  0  0  0  0  0
  1  2  1  0
  2  3  1  0
  3  4  2  0
  4  5  1  0
  5  6  2  0
  6  7  1  0
  7  8  1  0
  8  9  1  0
  9 10  1  0
 10 11  2  0
 10 12  1  0
 12 13  1  0
 13 14  2  0
 14 15  1  0
 15 16  1  0
 16 17  1  0
 17 18  1  0
 18 19  1  0
 19 20  1  0
  6  2  1  0
 16 12  2  0
 20 15  1  0
M  END
>  <inchikey>  (176) 
UNEQFIWDGDZIMQ-UHFFFAOYSA-N

>  <alias>  (176) 
Cn1ccnc1CCNC(=O)c1cnn2c1CNCC2

>  <tags>  (176) 
{'openbind_xx01zvns2b_c1_knitwork_pure', 'fragmenstein_placed'}

>  <HIPPO Pose ID>  (176) 
39949

>  <ref_pdb>  (176) 
71

>  <smiles>  (176) 
C10149-P25

>  <fragmenstein_runtime>  (176) 
2.662036

>  <fragmenstein_outcome>  (176) 
acceptable

>  <fragmenstein_mode>  (176) 
expansion

>  <fragmenstein_error>  (176) 


>  <HIPPO Compound ID>  (176) 
55427

>  <Energy>  (176) 
5.59183

>  <scratch_subdir>  (176) 
/opt/xchem-fragalysis-2/maxwin/BulkDock/SCRATCH/511030/C10149-P25

$$$$
c1c[nH]c([C@@H]2CCCCN2Cc2cnn3c2CNCC3)n1
     RDKit          3D

 21 24  0  0  0  0  0  0  0  0999 V2000
   -7.1210    5.0431  -17.6960 C   0  0  0  0  0  0  0  0  0  0  0  0
   -8.3282    4.5658  -17.2513 C   0  0  0  0  0  0  0  0  0  0  0  0
   -8.2751    4.6625  -15.8870 N   0  0  0  0  0  0  0  0  0  0  0  0
   -7.0531    5.1896  -15.5397 C   0  0  0  0  0  0  0  0  0  0  0  0
   -6.6316    5.4763  -14.0909 C   0  0  2  0  0  0  0  0  0  0  0  0
   -5.1075    5.2412  -13.9400 C   0  0  0  0  0  0  0  0  0  0  0  0
   -4.7573    3.7573  -13.8920 C   0  0  0  0  0  0  0  0  0  0  0  0
   -5.6489    2.9659  -12.9376 C   0  0  0  0  0  0  0  0  0  0  0  0
   -7.1315    3.3351  -13.0710 C   0  0  0  0  0  0  0  0  0  0  0  0
   -7.4291    4.7804  -12.9975 N   0  0  0  0  0  0  0  0  0  0  0  0
   -7.0206    5.3665  -11.6838 C   0  0  0  0  0  0  0  0  0  0  0  0
   -7.8033    5.1595  -10.4090 C   0  0  0  0  0  0  0  0  0  0  0  0
   -8.1751    6.2552   -9.5687 C   0  0  0  0  0  0  0  0  0  0  0  0
   -8.5645    5.8953   -8.3464 N   0  0  0  0  0  0  0  0  0  0  0  0
   -8.5335    4.5559   -8.4061 N   0  0  0  0  0  0  0  0  0  0  0  0
   -8.0936    4.0580   -9.6081 C   0  0  0  0  0  0  0  0  0  0  0  0
   -8.0118    2.5853   -9.7820 C   0  0  0  0  0  0  0  0  0  0  0  0
   -8.0135    1.8539   -8.5157 N   0  0  0  0  0  0  0  0  0  0  0  0
   -9.0589    2.3130   -7.6093 C   0  0  0  0  0  0  0  0  0  0  0  0
   -8.8232    3.7636   -7.2221 C   0  0  0  0  0  0  0  0  0  0  0  0
   -6.3467    5.4460  -16.6341 N   0  0  0  0  0  0  0  0  0  0  0  0
  1  2  2  0
  2  3  1  0
  3  4  1  0
  5  4  1  6
  5  6  1  0
  6  7  1  0
  7  8  1  0
  8  9  1  0
  9 10  1  0
 10 11  1  0
 11 12  1  0
 12 13  1  0
 13 14  2  0
 14 15  1  0
 15 16  1  0
 16 17  1  0
 17 18  1  0
 18 19  1  0
 19 20  1  0
  4 21  2  0
 21  1  1  0
 10  5  1  0
 16 12  2  0
 20 15  1  0
M  END
>  <inchikey>  (177) 
RXFIQFOPDUXLGW-UHFFFAOYSA-N

>  <alias>  (177) 
c1c[nH]c([C@@H]2CCCCN2Cc2cnn3c2CNCC3)n1

>  <tags>  (177) 
{'openbind_xx01zvns2b_c1_knitwork_pure', 'fragmenstein_placed'}

>  <HIPPO Pose ID>  (177) 
39950

>  <ref_pdb>  (177) 
71

>  <smiles>  (177) 
C4737-P25

>  <fragmenstein_runtime>  (177) 
2.44553

>  <fragmenstein_outcome>  (177) 
acceptable

>  <fragmenstein_mode>  (177) 
expansion

>  <fragmenstein_error>  (177) 


>  <HIPPO Compound ID>  (177) 
9815

>  <Energy>  (177) 
24.920067

>  <scratch_subdir>  (177) 
/opt/xchem-fragalysis-2/maxwin/BulkDock/SCRATCH/511030/C4737-P25

$$$$
c1cn(C2CCN(Cc3cnn4c3CNCC4)CC2)cn1
     RDKit          3D

 21 24  0  0  0  0  0  0  0  0999 V2000
   -6.8208    4.8345  -18.5261 C   0  0  0  0  0  0  0  0  0  0  0  0
   -7.6296    4.8641  -17.4115 C   0  0  0  0  0  0  0  0  0  0  0  0
   -6.7783    5.0744  -16.3620 N   0  0  0  0  0  0  0  0  0  0  0  0
   -7.1409    5.2947  -14.9667 C   0  0  0  0  0  0  0  0  0  0  0  0
   -6.8102    4.0994  -14.0566 C   0  0  0  0  0  0  0  0  0  0  0  0
   -6.2960    4.5315  -12.6739 C   0  0  0  0  0  0  0  0  0  0  0  0
   -6.9918    5.6921  -12.1108 N   0  0  0  0  0  0  0  0  0  0  0  0
   -8.3043    5.3465  -11.5591 C   0  0  0  0  0  0  0  0  0  0  0  0
   -8.2354    5.1893  -10.0802 C   0  0  0  0  0  0  0  0  0  0  0  0
   -8.1672    6.2128   -9.1019 C   0  0  0  0  0  0  0  0  0  0  0  0
   -8.2849    5.7585   -7.8489 N   0  0  0  0  0  0  0  0  0  0  0  0
   -8.3867    4.4246   -8.0223 N   0  0  0  0  0  0  0  0  0  0  0  0
   -8.3448    4.0338   -9.3312 C   0  0  0  0  0  0  0  0  0  0  0  0
   -8.4737    2.6041   -9.6980 C   0  0  0  0  0  0  0  0  0  0  0  0
   -8.2172    1.7520   -8.5478 N   0  0  0  0  0  0  0  0  0  0  0  0
   -8.9981    2.1384   -7.3812 C   0  0  0  0  0  0  0  0  0  0  0  0
   -8.5744    3.5258   -6.8970 C   0  0  0  0  0  0  0  0  0  0  0  0
   -7.0235    6.8543  -13.0025 C   0  0  0  0  0  0  0  0  0  0  0  0
   -6.5177    6.5840  -14.4169 C   0  0  0  0  0  0  0  0  0  0  0  0
   -5.5115    5.1301  -16.8732 C   0  0  0  0  0  0  0  0  0  0  0  0
   -5.5062    5.0215  -18.1803 N   0  0  0  0  0  0  0  0  0  0  0  0
  1  2  2  0
  2  3  1  0
  3  4  1  0
  4  5  1  0
  5  6  1  0
  6  7  1  0
  7  8  1  0
  8  9  1  0
  9 10  1  0
 10 11  2  0
 11 12  1  0
 12 13  1  0
 13 14  1  0
 14 15  1  0
 15 16  1  0
 16 17  1  0
  7 18  1  0
 18 19  1  0
  3 20  1  0
 20 21  2  0
 21  1  1  0
 19  4  1  0
 13  9  2  0
 17 12  1  0
M  END
>  <inchikey>  (178) 
PXJLRNZOFTXGNM-UHFFFAOYSA-N

>  <alias>  (178) 
c1cn(C2CCN(Cc3cnn4c3CNCC4)CC2)cn1

>  <tags>  (178) 
{'openbind_xx01zvns2b_c1_knitwork_pure', 'fragmenstein_placed'}

>  <HIPPO Pose ID>  (178) 
39951

>  <ref_pdb>  (178) 
71

>  <smiles>  (178) 
C10150-P25

>  <fragmenstein_runtime>  (178) 
2.757187

>  <fragmenstein_outcome>  (178) 
acceptable

>  <fragmenstein_mode>  (178) 
expansion

>  <fragmenstein_error>  (178) 


>  <HIPPO Compound ID>  (178) 
10371

>  <Energy>  (178) 
9.533899

>  <scratch_subdir>  (178) 
/opt/xchem-fragalysis-2/maxwin/BulkDock/SCRATCH/511030/C10150-P25

$$$$
C[C@H](CC(=O)NCc1cnn2c1CNCC2)n1ccnc1
     RDKit          3D

 21 23  0  0  0  0  0  0  0  0999 V2000
   -9.3260    4.1343  -16.5157 C   0  0  0  0  0  0  0  0  0  0  0  0
   -8.0115    4.5742  -15.8709 C   0  0  2  0  0  0  0  0  0  0  0  0
   -8.3036    5.6495  -14.8115 C   0  0  0  0  0  0  0  0  0  0  0  0
   -7.2125    5.7649  -13.7516 C   0  0  0  0  0  0  0  0  0  0  0  0
   -6.2964    6.4708  -13.9068 O   0  0  0  0  0  0  0  0  0  0  0  0
   -7.5650    4.8220  -12.5736 N   0  0  0  0  0  0  0  0  0  0  0  0
   -6.8190    4.4848  -11.3945 C   0  0  0  0  0  0  0  0  0  0  0  0
   -7.5736    4.7497  -10.1427 C   0  0  0  0  0  0  0  0  0  0  0  0
   -7.7685    5.9871   -9.4776 C   0  0  0  0  0  0  0  0  0  0  0  0
   -8.3264    5.8545   -8.2679 N   0  0  0  0  0  0  0  0  0  0  0  0
   -8.5036    4.5255   -8.1593 N   0  0  0  0  0  0  0  0  0  0  0  0
   -8.1323    3.8302   -9.2728 C   0  0  0  0  0  0  0  0  0  0  0  0
   -8.3182    2.3621   -9.3366 C   0  0  0  0  0  0  0  0  0  0  0  0
   -8.3843    1.7576   -8.0100 N   0  0  0  0  0  0  0  0  0  0  0  0
   -9.3152    2.4581   -7.1308 C   0  0  0  0  0  0  0  0  0  0  0  0
   -8.9086    3.9124   -6.9070 C   0  0  0  0  0  0  0  0  0  0  0  0
   -7.0535    4.9861  -16.8960 N   0  0  0  0  0  0  0  0  0  0  0  0
   -7.3004    5.2208  -18.2217 C   0  0  0  0  0  0  0  0  0  0  0  0
   -6.0675    5.3825  -18.8045 C   0  0  0  0  0  0  0  0  0  0  0  0
   -5.0757    5.2990  -17.8652 N   0  0  0  0  0  0  0  0  0  0  0  0
   -5.6964    5.0501  -16.7326 C   0  0  0  0  0  0  0  0  0  0  0  0
  2  1  1  6
  2  3  1  0
  3  4  1  0
  4  5  2  0
  4  6  1  0
  6  7  1  0
  7  8  1  0
  8  9  1  0
  9 10  2  0
 10 11  1  0
 11 12  1  0
 12 13  1  0
 13 14  1  0
 14 15  1  0
 15 16  1  0
  2 17  1  0
 17 18  1  0
 18 19  2  0
 19 20  1  0
 20 21  2  0
 12  8  2  0
 21 17  1  0
 16 11  1  0
M  END
>  <inchikey>  (179) 
PFCQPUJGHUPCMW-UHFFFAOYSA-N

>  <alias>  (179) 
C[C@H](CC(=O)NCc1cnn2c1CNCC2)n1ccnc1

>  <tags>  (179) 
{'openbind_xx01zvns2b_c1_knitwork_pure', 'fragmenstein_placed'}

>  <HIPPO Pose ID>  (179) 
39959

>  <ref_pdb>  (179) 
71

>  <smiles>  (179) 
C10158-P25

>  <fragmenstein_runtime>  (179) 
3.925933

>  <fragmenstein_outcome>  (179) 
acceptable

>  <fragmenstein_mode>  (179) 
expansion

>  <fragmenstein_error>  (179) 


>  <HIPPO Compound ID>  (179) 
1881

>  <Energy>  (179) 
-11.158611

>  <scratch_subdir>  (179) 
/opt/xchem-fragalysis-2/maxwin/BulkDock/SCRATCH/511030/C10158-P25

$$$$
Cn1ccnc1CCNS(=O)(=O)c1cnn2c1CNCC2
     RDKit          3D

 21 23  0  0  0  0  0  0  0  0999 V2000
   -4.5845    5.1800  -16.9532 C   0  0  0  0  0  0  0  0  0  0  0  0
   -5.9889    5.0394  -17.2405 N   0  0  0  0  0  0  0  0  0  0  0  0
   -6.5418    4.9646  -18.4873 C   0  0  0  0  0  0  0  0  0  0  0  0
   -7.8926    4.8480  -18.2719 C   0  0  0  0  0  0  0  0  0  0  0  0
   -8.1694    4.8682  -16.9321 N   0  0  0  0  0  0  0  0  0  0  0  0
   -7.0067    4.9566  -16.3168 C   0  0  0  0  0  0  0  0  0  0  0  0
   -6.8163    4.9682  -14.8281 C   0  0  0  0  0  0  0  0  0  0  0  0
   -7.9829    4.2722  -14.1164 C   0  0  0  0  0  0  0  0  0  0  0  0
   -7.7969    4.1363  -12.6477 N   0  0  0  0  0  0  0  0  0  0  0  0
   -7.6840    5.5397  -11.7439 S   0  0  0  0  0  0  0  0  0  0  0  0
   -6.2845    5.9109  -11.7393 O   0  0  0  0  0  0  0  0  0  0  0  0
   -8.7002    6.4677  -12.1889 O   0  0  0  0  0  0  0  0  0  0  0  0
   -8.0435    5.2504  -10.0993 C   0  0  0  0  0  0  0  0  0  0  0  0
   -8.1408    6.2581   -9.1233 C   0  0  0  0  0  0  0  0  0  0  0  0
   -8.4085    5.7734   -7.9033 N   0  0  0  0  0  0  0  0  0  0  0  0
   -8.4761    4.4404   -8.1164 N   0  0  0  0  0  0  0  0  0  0  0  0
   -8.2766    4.0731   -9.4212 C   0  0  0  0  0  0  0  0  0  0  0  0
   -8.3500    2.6500   -9.8193 C   0  0  0  0  0  0  0  0  0  0  0  0
   -8.1485    1.7897   -8.6616 N   0  0  0  0  0  0  0  0  0  0  0  0
   -9.0358    2.1214   -7.5552 C   0  0  0  0  0  0  0  0  0  0  0  0
   -8.7116    3.5149   -7.0207 C   0  0  0  0  0  0  0  0  0  0  0  0
  1  2  1  0
  2  3  1  0
  3  4  2  0
  4  5  1  0
  5  6  2  0
  6  7  1  0
  7  8  1  0
  8  9  1  0
  9 10  1  0
 10 11  2  0
 10 12  2  0
 10 13  1  0
 13 14  1  0
 14 15  2  0
 15 16  1  0
 16 17  1  0
 17 18  1  0
 18 19  1  0
 19 20  1  0
 20 21  1  0
  6  2  1  0
 17 13  2  0
 21 16  1  0
M  END
>  <inchikey>  (180) 
DUSFVTMTMYRMTO-UHFFFAOYSA-N

>  <alias>  (180) 
Cn1ccnc1CCNS(=O)(=O)c1cnn2c1CNCC2

>  <tags>  (180) 
{'openbind_xx01zvns2b_c1_knitwork_pure', 'fragmenstein_placed'}

>  <HIPPO Pose ID>  (180) 
39965

>  <ref_pdb>  (180) 
71

>  <smiles>  (180) 
C10165-P25

>  <fragmenstein_runtime>  (180) 
2.483109

>  <fragmenstein_outcome>  (180) 
acceptable

>  <fragmenstein_mode>  (180) 
expansion

>  <fragmenstein_error>  (180) 


>  <HIPPO Compound ID>  (180) 
54372

>  <Energy>  (180) 
-52.479424

>  <scratch_subdir>  (180) 
/opt/xchem-fragalysis-2/maxwin/BulkDock/SCRATCH/511030/C10165-P25

$$$$
CC(C)c1nccn1CCNC(=O)c1cnn2c1CNCC2
     RDKit          3D

 22 24  0  0  0  0  0  0  0  0999 V2000
   -3.7496    4.8448  -15.4473 C   0  0  0  0  0  0  0  0  0  0  0  0
   -4.8722    5.8814  -15.5009 C   0  0  0  0  0  0  0  0  0  0  0  0
   -4.3209    7.2436  -15.9281 C   0  0  0  0  0  0  0  0  0  0  0  0
   -5.9575    5.4255  -16.4375 C   0  0  0  0  0  0  0  0  0  0  0  0
   -5.9535    5.5998  -17.7458 N   0  0  0  0  0  0  0  0  0  0  0  0
   -7.1093    5.0288  -18.2074 C   0  0  0  0  0  0  0  0  0  0  0  0
   -7.8531    4.5332  -17.1642 C   0  0  0  0  0  0  0  0  0  0  0  0
   -7.0928    4.7469  -16.0448 N   0  0  0  0  0  0  0  0  0  0  0  0
   -7.4218    4.3077  -14.6952 C   0  0  0  0  0  0  0  0  0  0  0  0
   -8.3571    5.2866  -13.9989 C   0  0  0  0  0  0  0  0  0  0  0  0
   -8.3888    5.1833  -12.5554 N   0  0  0  0  0  0  0  0  0  0  0  0
   -7.7406    6.0663  -11.4763 C   0  0  0  0  0  0  0  0  0  0  0  0
   -7.1420    7.0606  -11.5740 O   0  0  0  0  0  0  0  0  0  0  0  0
   -8.0354    5.5812  -10.1199 C   0  0  0  0  0  0  0  0  0  0  0  0
   -8.1359    6.4324   -8.9847 C   0  0  0  0  0  0  0  0  0  0  0  0
   -8.4205    5.7889   -7.8517 N   0  0  0  0  0  0  0  0  0  0  0  0
   -8.4507    4.5013   -8.2411 N   0  0  0  0  0  0  0  0  0  0  0  0
   -8.2403    4.3149   -9.5876 C   0  0  0  0  0  0  0  0  0  0  0  0
   -8.2245    2.9321  -10.1328 C   0  0  0  0  0  0  0  0  0  0  0  0
   -7.9078    1.9752   -9.0827 N   0  0  0  0  0  0  0  0  0  0  0  0
   -8.8128    2.0969   -7.9417 C   0  0  0  0  0  0  0  0  0  0  0  0
   -8.6276    3.4454   -7.2586 C   0  0  0  0  0  0  0  0  0  0  0  0
  1  2  1  0
  2  3  1  0
  2  4  1  0
  4  5  2  0
  5  6  1  0
  6  7  2  0
  7  8  1  0
  8  9  1  0
  9 10  1  0
 10 11  1  0
 11 12  1  0
 12 13  2  0
 12 14  1  0
 14 15  1  0
 15 16  2  0
 16 17  1  0
 17 18  1  0
 18 19  1  0
 19 20  1  0
 20 21  1  0
 21 22  1  0
  8  4  1  0
 18 14  2  0
 22 17  1  0
M  END
>  <inchikey>  (181) 
QXNWKBIZWSDVFJ-UHFFFAOYSA-N

>  <alias>  (181) 
CC(C)c1nccn1CCNC(=O)c1cnn2c1CNCC2

>  <tags>  (181) 
{'openbind_xx01zvns2b_c1_knitwork_pure', 'fragmenstein_placed'}

>  <HIPPO Pose ID>  (181) 
39968

>  <ref_pdb>  (181) 
71

>  <smiles>  (181) 
C10169-P25

>  <fragmenstein_runtime>  (181) 
3.365119

>  <fragmenstein_outcome>  (181) 
acceptable

>  <fragmenstein_mode>  (181) 
expansion

>  <fragmenstein_error>  (181) 


>  <HIPPO Compound ID>  (181) 
55685

>  <Energy>  (181) 
8.378597

>  <scratch_subdir>  (181) 
/opt/xchem-fragalysis-2/maxwin/BulkDock/SCRATCH/511030/C10169-P25

$$$$
CCn1cc(C(=O)O)nc1NC(C)C
     RDKit          3D

 14 14  0  0  0  0  0  0  0  0999 V2000
   -4.7169    6.3496  -14.9218 C   0  0  0  0  0  0  0  0  0  0  0  0
   -4.3071    5.8547  -16.3024 C   0  0  0  0  0  0  0  0  0  0  0  0
   -5.3733    5.3450  -17.1349 N   0  0  0  0  0  0  0  0  0  0  0  0
   -6.6497    5.1396  -16.6872 C   0  0  0  0  0  0  0  0  0  0  0  0
   -7.3696    4.6641  -17.7574 C   0  0  0  0  0  0  0  0  0  0  0  0
   -8.7840    4.3082  -17.7081 C   0  0  0  0  0  0  0  0  0  0  0  0
   -9.4422    3.7438  -18.5680 O   0  0  0  0  0  0  0  0  0  0  0  0
   -9.3856    4.6790  -16.5416 O   0  0  0  0  0  0  0  0  0  0  0  0
   -6.5319    4.5856  -18.8528 N   0  0  0  0  0  0  0  0  0  0  0  0
   -5.3342    4.9798  -18.4667 C   0  0  0  0  0  0  0  0  0  0  0  0
   -4.2661    4.9737  -19.2997 N   0  0  0  0  0  0  0  0  0  0  0  0
   -2.9026    5.4031  -19.0758 C   0  0  0  0  0  0  0  0  0  0  0  0
   -1.9395    4.4998  -19.8486 C   0  0  0  0  0  0  0  0  0  0  0  0
   -2.7329    6.8513  -19.5208 C   0  0  0  0  0  0  0  0  0  0  0  0
  1  2  1  0
  2  3  1  0
  3  4  1  0
  4  5  2  0
  5  6  1  0
  6  7  2  0
  6  8  1  0
  5  9  1  0
  9 10  2  0
 10 11  1  0
 11 12  1  0
 12 13  1  0
 12 14  1  0
 10  3  1  0
M  END
>  <inchikey>  (182) 
GFOXOCSROBMKHG-UHFFFAOYSA-N

>  <alias>  (182) 
CCn1cc(C(=O)O)nc1NC(C)C

>  <tags>  (182) 
{'openbind_xx01zvns2b_c1_knitwork_pure', 'fragmenstein_placed'}

>  <HIPPO Pose ID>  (182) 
40109

>  <ref_pdb>  (182) 
71

>  <smiles>  (182) 
C55567-P91

>  <fragmenstein_runtime>  (182) 
3.229278

>  <fragmenstein_outcome>  (182) 
acceptable

>  <fragmenstein_mode>  (182) 
expansion

>  <fragmenstein_error>  (182) 


>  <HIPPO Compound ID>  (182) 
9562

>  <Energy>  (182) 
0.341575

>  <scratch_subdir>  (182) 
/opt/xchem-fragalysis-2/maxwin/BulkDock/SCRATCH/511030/C55567-P91

$$$$
CCn1cc(N)nc1NC(C)C
     RDKit          3D

 12 12  0  0  0  0  0  0  0  0999 V2000
   -5.2457    6.0412  -15.0595 C   0  0  0  0  0  0  0  0  0  0  0  0
   -4.6049    5.6317  -16.3781 C   0  0  0  0  0  0  0  0  0  0  0  0
   -5.5080    5.1926  -17.4182 N   0  0  0  0  0  0  0  0  0  0  0  0
   -6.8545    4.9617  -17.2452 C   0  0  0  0  0  0  0  0  0  0  0  0
   -7.3061    4.6279  -18.4854 C   0  0  0  0  0  0  0  0  0  0  0  0
   -8.5656    4.3911  -18.8599 N   0  0  0  0  0  0  0  0  0  0  0  0
   -6.3107    4.6108  -19.3922 N   0  0  0  0  0  0  0  0  0  0  0  0
   -5.2172    4.9478  -18.7491 C   0  0  0  0  0  0  0  0  0  0  0  0
   -4.0322    5.0013  -19.3929 N   0  0  0  0  0  0  0  0  0  0  0  0
   -2.7189    5.3698  -18.9315 C   0  0  0  0  0  0  0  0  0  0  0  0
   -1.6839    4.4904  -19.6361 C   0  0  0  0  0  0  0  0  0  0  0  0
   -2.4597    6.8402  -19.2426 C   0  0  0  0  0  0  0  0  0  0  0  0
  1  2  1  0
  2  3  1  0
  3  4  1  0
  4  5  2  0
  5  6  1  0
  5  7  1  0
  7  8  2  0
  8  9  1  0
  9 10  1  0
 10 11  1  0
 10 12  1  0
  8  3  1  0
M  END
>  <inchikey>  (183) 
RTTMDCFPBRDTFG-UHFFFAOYSA-N

>  <alias>  (183) 
CCn1cc(N)nc1NC(C)C

>  <tags>  (183) 
{'openbind_xx01zvns2b_c1_knitwork_pure', 'fragmenstein_placed'}

>  <HIPPO Pose ID>  (183) 
40115

>  <ref_pdb>  (183) 
71

>  <smiles>  (183) 
C55581-P91

>  <fragmenstein_runtime>  (183) 
2.734389

>  <fragmenstein_outcome>  (183) 
acceptable

>  <fragmenstein_mode>  (183) 
expansion

>  <fragmenstein_error>  (183) 


>  <HIPPO Compound ID>  (183) 
48189

>  <Energy>  (183) 
-74.729864

>  <scratch_subdir>  (183) 
/opt/xchem-fragalysis-2/maxwin/BulkDock/SCRATCH/511030/C55581-P91

$$$$
CCn1cc(Br)nc1NC(C)C
     RDKit          3D

 12 12  0  0  0  0  0  0  0  0999 V2000
   -5.0311    6.1940  -15.0525 C   0  0  0  0  0  0  0  0  0  0  0  0
   -4.4497    5.7476  -16.3874 C   0  0  0  0  0  0  0  0  0  0  0  0
   -5.4000    5.2737  -17.3687 N   0  0  0  0  0  0  0  0  0  0  0  0
   -6.7276    5.0409  -17.1104 C   0  0  0  0  0  0  0  0  0  0  0  0
   -7.2598    4.6406  -18.3034 C   0  0  0  0  0  0  0  0  0  0  0  0
   -9.0580    4.1928  -18.5637 Br  0  0  0  0  0  0  0  0  0  0  0  0
   -6.3049    4.5990  -19.2684 N   0  0  0  0  0  0  0  0  0  0  0  0
   -5.1831    4.9804  -18.7026 C   0  0  0  0  0  0  0  0  0  0  0  0
   -4.0341    5.0298  -19.4080 N   0  0  0  0  0  0  0  0  0  0  0  0
   -2.6957    5.3806  -19.0064 C   0  0  0  0  0  0  0  0  0  0  0  0
   -1.7019    4.4678  -19.7259 C   0  0  0  0  0  0  0  0  0  0  0  0
   -2.4223    6.8392  -19.3575 C   0  0  0  0  0  0  0  0  0  0  0  0
  1  2  1  0
  2  3  1  0
  3  4  1  0
  4  5  2  0
  5  6  1  0
  5  7  1  0
  7  8  2  0
  8  9  1  0
  9 10  1  0
 10 11  1  0
 10 12  1  0
  8  3  1  0
M  END
>  <inchikey>  (184) 
XNYIKINPUXOWRO-UHFFFAOYSA-N

>  <alias>  (184) 
CCn1cc(Br)nc1NC(C)C

>  <tags>  (184) 
{'openbind_xx01zvns2b_c1_knitwork_pure', 'fragmenstein_placed'}

>  <HIPPO Pose ID>  (184) 
40116

>  <ref_pdb>  (184) 
71

>  <smiles>  (184) 
C55582-P91

>  <fragmenstein_runtime>  (184) 
2.557134

>  <fragmenstein_outcome>  (184) 
acceptable

>  <fragmenstein_mode>  (184) 
expansion

>  <fragmenstein_error>  (184) 


>  <HIPPO Compound ID>  (184) 
824

>  <Energy>  (184) 
-22.414887

>  <scratch_subdir>  (184) 
/opt/xchem-fragalysis-2/maxwin/BulkDock/SCRATCH/511030/C55582-P91

$$$$
CCn1cc(C(=O)OC)nc1NC(C)C
     RDKit          3D

 15 15  0  0  0  0  0  0  0  0999 V2000
   -4.9027    6.1564  -15.1164 C   0  0  0  0  0  0  0  0  0  0  0  0
   -4.3259    5.8662  -16.4970 C   0  0  0  0  0  0  0  0  0  0  0  0
   -5.2800    5.4894  -17.5167 N   0  0  0  0  0  0  0  0  0  0  0  0
   -6.6417    5.5161  -17.3542 C   0  0  0  0  0  0  0  0  0  0  0  0
   -7.1705    4.8308  -18.4280 C   0  0  0  0  0  0  0  0  0  0  0  0
   -8.5620    4.4350  -18.6703 C   0  0  0  0  0  0  0  0  0  0  0  0
   -8.9630    3.9743  -19.7302 O   0  0  0  0  0  0  0  0  0  0  0  0
   -9.4563    4.6237  -17.6503 O   0  0  0  0  0  0  0  0  0  0  0  0
   -9.1105    4.2022  -16.3328 C   0  0  0  0  0  0  0  0  0  0  0  0
   -6.1502    4.5544  -19.3083 N   0  0  0  0  0  0  0  0  0  0  0  0
   -5.0375    4.9945  -18.7766 C   0  0  0  0  0  0  0  0  0  0  0  0
   -3.8710    4.9017  -19.4398 N   0  0  0  0  0  0  0  0  0  0  0  0
   -2.5670    5.4067  -19.0974 C   0  0  0  0  0  0  0  0  0  0  0  0
   -1.5235    4.5209  -19.7770 C   0  0  0  0  0  0  0  0  0  0  0  0
   -2.4229    6.8539  -19.5488 C   0  0  0  0  0  0  0  0  0  0  0  0
  1  2  1  0
  2  3  1  0
  3  4  1  0
  4  5  2  0
  5  6  1  0
  6  7  2  0
  6  8  1  0
  8  9  1  0
  5 10  1  0
 10 11  2  0
 11 12  1  0
 12 13  1  0
 13 14  1  0
 13 15  1  0
 11  3  1  0
M  END
>  <inchikey>  (185) 
VBEZLCCEVLCAND-UHFFFAOYSA-N

>  <alias>  (185) 
CCn1cc(C(=O)OC)nc1NC(C)C

>  <tags>  (185) 
{'openbind_xx01zvns2b_c1_knitwork_pure', 'fragmenstein_placed'}

>  <HIPPO Pose ID>  (185) 
40119

>  <ref_pdb>  (185) 
71

>  <smiles>  (185) 
C55586-P91

>  <fragmenstein_runtime>  (185) 
2.94955

>  <fragmenstein_outcome>  (185) 
acceptable

>  <fragmenstein_mode>  (185) 
expansion

>  <fragmenstein_error>  (185) 


>  <HIPPO Compound ID>  (185) 
4206

>  <Energy>  (185) 
34.591667

>  <scratch_subdir>  (185) 
/opt/xchem-fragalysis-2/maxwin/BulkDock/SCRATCH/511030/C55586-P91

$$$$
CCn1cc(C#N)nc1NC(C)C
     RDKit          3D

 13 13  0  0  0  0  0  0  0  0999 V2000
   -4.9301    6.2672  -15.0523 C   0  0  0  0  0  0  0  0  0  0  0  0
   -4.4002    5.8027  -16.4028 C   0  0  0  0  0  0  0  0  0  0  0  0
   -5.3880    5.3094  -17.3377 N   0  0  0  0  0  0  0  0  0  0  0  0
   -6.6997    5.0745  -17.0133 C   0  0  0  0  0  0  0  0  0  0  0  0
   -7.2858    4.6314  -18.1687 C   0  0  0  0  0  0  0  0  0  0  0  0
   -8.6477    4.2241  -18.2840 C   0  0  0  0  0  0  0  0  0  0  0  0
   -9.7586    3.8954  -18.1980 N   0  0  0  0  0  0  0  0  0  0  0  0
   -6.3732    4.5789  -19.1811 N   0  0  0  0  0  0  0  0  0  0  0  0
   -5.2276    4.9832  -18.6735 C   0  0  0  0  0  0  0  0  0  0  0  0
   -4.1033    5.0188  -19.4198 N   0  0  0  0  0  0  0  0  0  0  0  0
   -2.7533    5.3903  -19.0680 C   0  0  0  0  0  0  0  0  0  0  0  0
   -1.7692    4.4761  -19.7991 C   0  0  0  0  0  0  0  0  0  0  0  0
   -2.5045    6.8452  -19.4500 C   0  0  0  0  0  0  0  0  0  0  0  0
  1  2  1  0
  2  3  1  0
  3  4  1  0
  4  5  2  0
  5  6  1  0
  6  7  3  0
  5  8  1  0
  8  9  2  0
  9 10  1  0
 10 11  1  0
 11 12  1  0
 11 13  1  0
  9  3  1  0
M  END
>  <inchikey>  (186) 
BGYQKCRLTOHJDD-UHFFFAOYSA-N

>  <alias>  (186) 
CCn1cc(C#N)nc1NC(C)C

>  <tags>  (186) 
{'openbind_xx01zvns2b_c1_knitwork_pure', 'fragmenstein_placed'}

>  <HIPPO Pose ID>  (186) 
40120

>  <ref_pdb>  (186) 
71

>  <smiles>  (186) 
C55587-P91

>  <fragmenstein_runtime>  (186) 
2.18234

>  <fragmenstein_outcome>  (186) 
acceptable

>  <fragmenstein_mode>  (186) 
expansion

>  <fragmenstein_error>  (186) 


>  <HIPPO Compound ID>  (186) 
3206

>  <Energy>  (186) 
12.98714

>  <scratch_subdir>  (186) 
/opt/xchem-fragalysis-2/maxwin/BulkDock/SCRATCH/511030/C55587-P91

$$$$
CCn1cc(C)nc1NC(C)C
     RDKit          3D

 12 12  0  0  0  0  0  0  0  0999 V2000
   -4.4871    5.5826  -15.2147 C   0  0  0  0  0  0  0  0  0  0  0  0
   -4.8529    6.3676  -16.4582 C   0  0  0  0  0  0  0  0  0  0  0  0
   -5.5569    5.5589  -17.4248 N   0  0  0  0  0  0  0  0  0  0  0  0
   -6.8648    5.1816  -17.2270 C   0  0  0  0  0  0  0  0  0  0  0  0
   -7.2657    4.6271  -18.4152 C   0  0  0  0  0  0  0  0  0  0  0  0
   -8.6057    4.1470  -18.8043 C   0  0  0  0  0  0  0  0  0  0  0  0
   -6.2123    4.6000  -19.2922 N   0  0  0  0  0  0  0  0  0  0  0  0
   -5.1979    5.1807  -18.6979 C   0  0  0  0  0  0  0  0  0  0  0  0
   -4.0457    5.4468  -19.3527 N   0  0  0  0  0  0  0  0  0  0  0  0
   -2.7101    5.4540  -18.7941 C   0  0  0  0  0  0  0  0  0  0  0  0
   -1.8453    4.3691  -19.4339 C   0  0  0  0  0  0  0  0  0  0  0  0
   -2.0901    6.8235  -19.0736 C   0  0  0  0  0  0  0  0  0  0  0  0
  1  2  1  0
  2  3  1  0
  3  4  1  0
  4  5  2  0
  5  6  1  0
  5  7  1  0
  7  8  2  0
  8  9  1  0
  9 10  1  0
 10 11  1  0
 10 12  1  0
  8  3  1  0
M  END
>  <inchikey>  (187) 
OYBKQPCGWUIYJF-UHFFFAOYSA-N

>  <alias>  (187) 
CCn1cc(C)nc1NC(C)C

>  <tags>  (187) 
{'openbind_xx01zvns2b_c1_knitwork_pure', 'fragmenstein_placed'}

>  <HIPPO Pose ID>  (187) 
40122

>  <ref_pdb>  (187) 
71

>  <smiles>  (187) 
C55592-P91

>  <fragmenstein_runtime>  (187) 
2.839925

>  <fragmenstein_outcome>  (187) 
acceptable

>  <fragmenstein_mode>  (187) 
expansion

>  <fragmenstein_error>  (187) 


>  <HIPPO Compound ID>  (187) 
13694

>  <Energy>  (187) 
-18.699825

>  <scratch_subdir>  (187) 
/opt/xchem-fragalysis-2/maxwin/BulkDock/SCRATCH/511030/C55592-P91

$$$$
CC(C)Nc1ccc2ccccc2n1
     RDKit          3D

 14 15  0  0  0  0  0  0  0  0999 V2000
   -1.5251    4.5985  -20.1616 C   0  0  0  0  0  0  0  0  0  0  0  0
   -2.3953    5.4568  -19.2560 C   0  0  0  0  0  0  0  0  0  0  0  0
   -2.2094    6.9397  -19.5455 C   0  0  0  0  0  0  0  0  0  0  0  0
   -3.7730    5.0859  -19.4572 N   0  0  0  0  0  0  0  0  0  0  0  0
   -4.7577    5.1280  -18.5105 C   0  0  0  0  0  0  0  0  0  0  0  0
   -4.5170    5.3558  -17.1622 C   0  0  0  0  0  0  0  0  0  0  0  0
   -5.5525    5.2426  -16.2509 C   0  0  0  0  0  0  0  0  0  0  0  0
   -6.8074    4.8781  -16.7187 C   0  0  0  0  0  0  0  0  0  0  0  0
   -7.8446    4.6383  -15.8231 C   0  0  0  0  0  0  0  0  0  0  0  0
   -9.0776    4.2391  -16.3102 C   0  0  0  0  0  0  0  0  0  0  0  0
   -9.3046    4.1274  -17.6749 C   0  0  0  0  0  0  0  0  0  0  0  0
   -8.2586    4.3605  -18.5617 C   0  0  0  0  0  0  0  0  0  0  0  0
   -6.9961    4.7121  -18.1064 C   0  0  0  0  0  0  0  0  0  0  0  0
   -5.9854    4.8518  -18.9753 N   0  0  0  0  0  0  0  0  0  0  0  0
  1  2  1  0
  2  3  1  0
  2  4  1  0
  4  5  1  0
  5  6  2  0
  6  7  1  0
  7  8  2  0
  8  9  1  0
  9 10  2  0
 10 11  1  0
 11 12  2  0
 12 13  1  0
 13 14  2  0
 14  5  1  0
 13  8  1  0
M  END
>  <inchikey>  (188) 
SAVHJNAJCANXML-UHFFFAOYSA-N

>  <alias>  (188) 
CC(C)Nc1ccc2ccccc2n1

>  <tags>  (188) 
{'openbind_xx01zvns2b_c1_knitwork_pure', 'fragmenstein_placed'}

>  <HIPPO Pose ID>  (188) 
40166

>  <ref_pdb>  (188) 
71

>  <smiles>  (188) 
C2920-P91

>  <fragmenstein_runtime>  (188) 
11.905806

>  <fragmenstein_outcome>  (188) 
acceptable

>  <fragmenstein_mode>  (188) 
expansion

>  <fragmenstein_error>  (188) 


>  <HIPPO Compound ID>  (188) 
48815

>  <Energy>  (188) 
-5.302139

>  <scratch_subdir>  (188) 
/opt/xchem-fragalysis-2/maxwin/BulkDock/SCRATCH/511030/C2920-P91

$$$$
COc1ccc(NC(C)C)c2cccnc12
     RDKit          3D

 16 17  0  0  0  0  0  0  0  0999 V2000
   -8.6766    3.8350  -19.1488 C   0  0  0  0  0  0  0  0  0  0  0  0
   -8.6465    5.0535  -18.4521 O   0  0  0  0  0  0  0  0  0  0  0  0
   -8.0638    4.8872  -17.2225 C   0  0  0  0  0  0  0  0  0  0  0  0
   -8.9134    4.5119  -16.1869 C   0  0  0  0  0  0  0  0  0  0  0  0
   -8.4724    4.5989  -14.8813 C   0  0  0  0  0  0  0  0  0  0  0  0
   -7.1799    5.0535  -14.6119 C   0  0  0  0  0  0  0  0  0  0  0  0
   -6.8096    5.2973  -13.2571 N   0  0  0  0  0  0  0  0  0  0  0  0
   -7.3899    6.5482  -12.7259 C   0  0  0  0  0  0  0  0  0  0  0  0
   -7.3709    6.4706  -11.1998 C   0  0  0  0  0  0  0  0  0  0  0  0
   -6.5911    7.7696  -13.1780 C   0  0  0  0  0  0  0  0  0  0  0  0
   -6.2952    5.3565  -15.6824 C   0  0  0  0  0  0  0  0  0  0  0  0
   -4.9567    5.7406  -15.4776 C   0  0  0  0  0  0  0  0  0  0  0  0
   -4.1289    6.0372  -16.5526 C   0  0  0  0  0  0  0  0  0  0  0  0
   -4.6674    5.9564  -17.8175 C   0  0  0  0  0  0  0  0  0  0  0  0
   -5.9444    5.6102  -18.0583 N   0  0  0  0  0  0  0  0  0  0  0  0
   -6.7433    5.2841  -17.0164 C   0  0  0  0  0  0  0  0  0  0  0  0
  1  2  1  0
  2  3  1  0
  3  4  2  0
  4  5  1  0
  5  6  2  0
  6  7  1  0
  7  8  1  0
  8  9  1  0
  8 10  1  0
  6 11  1  0
 11 12  2  0
 12 13  1  0
 13 14  2  0
 14 15  1  0
 15 16  2  0
 16  3  1  0
 16 11  1  0
M  END
>  <inchikey>  (189) 
ZHANAJIUUIAQKB-UHFFFAOYSA-N

>  <alias>  (189) 
COc1ccc(NC(C)C)c2cccnc12

>  <tags>  (189) 
{'openbind_xx01zvns2b_c1_knitwork_pure', 'fragmenstein_placed'}

>  <HIPPO Pose ID>  (189) 
40191

>  <ref_pdb>  (189) 
71

>  <smiles>  (189) 
C2962-P91

>  <fragmenstein_runtime>  (189) 
1.082241

>  <fragmenstein_outcome>  (189) 
acceptable

>  <fragmenstein_mode>  (189) 
expansion

>  <fragmenstein_error>  (189) 


>  <HIPPO Compound ID>  (189) 
48044

>  <Energy>  (189) 
76.262146

>  <scratch_subdir>  (189) 
/opt/xchem-fragalysis-2/maxwin/BulkDock/SCRATCH/511030/C2962-P91

$$$$
O=C(Cn1cnc2ccccc21)NCc1nccc(=O)[nH]1
     RDKit          3D

 21 23  0  0  0  0  0  0  0  0999 V2000
   -3.0621    3.9929  -16.6363 O   0  0  0  0  0  0  0  0  0  0  0  0
   -3.5415    4.8295  -15.9788 C   0  0  0  0  0  0  0  0  0  0  0  0
   -4.4546    5.9010  -16.5674 C   0  0  0  0  0  0  0  0  0  0  0  0
   -5.4342    5.3319  -17.4704 N   0  0  0  0  0  0  0  0  0  0  0  0
   -5.2515    5.1532  -18.8102 C   0  0  0  0  0  0  0  0  0  0  0  0
   -6.3576    4.7717  -19.3976 N   0  0  0  0  0  0  0  0  0  0  0  0
   -7.2959    4.6990  -18.4037 C   0  0  0  0  0  0  0  0  0  0  0  0
   -8.6590    4.3882  -18.4861 C   0  0  0  0  0  0  0  0  0  0  0  0
   -9.4069    4.3386  -17.3100 C   0  0  0  0  0  0  0  0  0  0  0  0
   -8.8009    4.5707  -16.0741 C   0  0  0  0  0  0  0  0  0  0  0  0
   -7.4497    4.9161  -15.9711 C   0  0  0  0  0  0  0  0  0  0  0  0
   -6.7285    4.9907  -17.1651 C   0  0  0  0  0  0  0  0  0  0  0  0
   -3.4096    5.1125  -14.4589 N   0  0  0  0  0  0  0  0  0  0  0  0
   -2.7367    4.3672  -13.4217 C   0  0  0  0  0  0  0  0  0  0  0  0
   -3.7821    3.6029  -12.6326 C   0  0  0  0  0  0  0  0  0  0  0  0
   -3.8680    3.7336  -11.3466 N   0  0  0  0  0  0  0  0  0  0  0  0
   -4.8319    2.9810  -10.7240 C   0  0  0  0  0  0  0  0  0  0  0  0
   -5.7069    2.1883  -11.3495 C   0  0  0  0  0  0  0  0  0  0  0  0
   -5.6469    2.1162  -12.8101 C   0  0  0  0  0  0  0  0  0  0  0  0
   -6.4879    1.5077  -13.4585 O   0  0  0  0  0  0  0  0  0  0  0  0
   -4.6021    2.7887  -13.3693 N   0  0  0  0  0  0  0  0  0  0  0  0
  1  2  2  0
  2  3  1  0
  3  4  1  0
  4  5  1  0
  5  6  2  0
  6  7  1  0
  7  8  2  0
  8  9  1  0
  9 10  2  0
 10 11  1  0
 11 12  2  0
  2 13  1  0
 13 14  1  0
 14 15  1  0
 15 16  2  0
 16 17  1  0
 17 18  2  0
 18 19  1  0
 19 20  2  0
 19 21  1  0
 12  4  1  0
 21 15  1  0
 12  7  1  0
M  END
>  <inchikey>  (190) 
LNXVLBQIMCLAAQ-UHFFFAOYSA-N

>  <alias>  (190) 
O=C(Cn1cnc2ccccc21)NCc1nccc(=O)[nH]1

>  <tags>  (190) 
{'openbind_xx01zvns2b_c1_knitwork_pure', 'fragmenstein_placed'}

>  <HIPPO Pose ID>  (190) 
40533

>  <ref_pdb>  (190) 
41

>  <smiles>  (190) 
C65393-P35

>  <fragmenstein_runtime>  (190) 
4.126996

>  <fragmenstein_outcome>  (190) 
acceptable

>  <fragmenstein_mode>  (190) 
expansion

>  <fragmenstein_error>  (190) 


>  <HIPPO Compound ID>  (190) 
116932

>  <Energy>  (190) 
-9.064905

>  <scratch_subdir>  (190) 
/opt/xchem-fragalysis-2/maxwin/BulkDock/SCRATCH/511031/C65393-P35

$$$$
C[C@]1(CNC(=O)Cn2cnc3ccccc32)CCC(=O)NC1
     RDKit          3D

 22 24  0  0  0  0  0  0  0  0999 V2000
   -2.4563    3.4391  -11.3594 C   0  0  0  0  0  0  0  0  0  0  0  0
   -3.2613    3.6243  -12.6651 C   0  0  2  0  0  0  0  0  0  0  0  0
   -2.4909    4.6429  -13.5427 C   0  0  0  0  0  0  0  0  0  0  0  0
   -3.2922    5.2679  -14.5681 N   0  0  0  0  0  0  0  0  0  0  0  0
   -3.4726    4.9046  -16.0717 C   0  0  0  0  0  0  0  0  0  0  0  0
   -2.9411    4.0929  -16.7231 O   0  0  0  0  0  0  0  0  0  0  0  0
   -4.4775    5.9015  -16.6498 C   0  0  0  0  0  0  0  0  0  0  0  0
   -5.4480    5.2801  -17.5273 N   0  0  0  0  0  0  0  0  0  0  0  0
   -5.2436    5.0091  -18.8485 C   0  0  0  0  0  0  0  0  0  0  0  0
   -6.3446    4.6080  -19.4334 N   0  0  0  0  0  0  0  0  0  0  0  0
   -7.3041    4.6226  -18.4581 C   0  0  0  0  0  0  0  0  0  0  0  0
   -8.6694    4.3228  -18.5471 C   0  0  0  0  0  0  0  0  0  0  0  0
   -9.4432    4.3582  -17.3877 C   0  0  0  0  0  0  0  0  0  0  0  0
   -8.8641    4.6884  -16.1628 C   0  0  0  0  0  0  0  0  0  0  0  0
   -7.5190    5.0522  -16.0624 C   0  0  0  0  0  0  0  0  0  0  0  0
   -6.7606    5.0033  -17.2336 C   0  0  0  0  0  0  0  0  0  0  0  0
   -4.6857    4.1344  -12.2966 C   0  0  0  0  0  0  0  0  0  0  0  0
   -5.7738    3.5453  -13.1939 C   0  0  0  0  0  0  0  0  0  0  0  0
   -5.7630    2.0522  -13.0395 C   0  0  0  0  0  0  0  0  0  0  0  0
   -6.7744    1.3670  -13.0210 O   0  0  0  0  0  0  0  0  0  0  0  0
   -4.5046    1.5170  -12.9563 N   0  0  0  0  0  0  0  0  0  0  0  0
   -3.3472    2.2603  -13.3853 C   0  0  0  0  0  0  0  0  0  0  0  0
  2  1  1  1
  2  3  1  0
  3  4  1  0
  4  5  1  0
  5  6  2  0
  5  7  1  0
  7  8  1  0
  8  9  1  0
  9 10  2  0
 10 11  1  0
 11 12  2  0
 12 13  1  0
 13 14  2  0
 14 15  1  0
 15 16  2  0
  2 17  1  0
 17 18  1  0
 18 19  1  0
 19 20  2  0
 19 21  1  0
 21 22  1  0
 22  2  1  0
 16  8  1  0
 16 11  1  0
M  END
>  <inchikey>  (191) 
XTYRGIBFANQMRT-UHFFFAOYSA-N

>  <alias>  (191) 
C[C@]1(CNC(=O)Cn2cnc3ccccc32)CCC(=O)NC1

>  <tags>  (191) 
{'openbind_xx01zvns2b_c1_knitwork_pure', 'fragmenstein_placed'}

>  <HIPPO Pose ID>  (191) 
40539

>  <ref_pdb>  (191) 
41

>  <smiles>  (191) 
C65404-P35

>  <fragmenstein_runtime>  (191) 
7.259397

>  <fragmenstein_outcome>  (191) 
acceptable

>  <fragmenstein_mode>  (191) 
expansion

>  <fragmenstein_error>  (191) 


>  <HIPPO Compound ID>  (191) 
116077

>  <Energy>  (191) 
20.125989

>  <scratch_subdir>  (191) 
/opt/xchem-fragalysis-2/maxwin/BulkDock/SCRATCH/511031/C65404-P35

$$$$
O=C(Cn1cnc2ccccc21)NCC1(CCO)CCCC1
     RDKit          3D

 22 24  0  0  0  0  0  0  0  0999 V2000
   -2.4580    4.5677  -16.8880 O   0  0  0  0  0  0  0  0  0  0  0  0
   -3.4190    4.8041  -16.2678 C   0  0  0  0  0  0  0  0  0  0  0  0
   -4.4194    5.8688  -16.6934 C   0  0  0  0  0  0  0  0  0  0  0  0
   -5.4412    5.3140  -17.5509 N   0  0  0  0  0  0  0  0  0  0  0  0
   -5.2728    5.0534  -18.8797 C   0  0  0  0  0  0  0  0  0  0  0  0
   -6.3856    4.6421  -19.4328 N   0  0  0  0  0  0  0  0  0  0  0  0
   -7.3171    4.6507  -18.4319 C   0  0  0  0  0  0  0  0  0  0  0  0
   -8.6820    4.3440  -18.4892 C   0  0  0  0  0  0  0  0  0  0  0  0
   -9.4251    4.3707  -17.3103 C   0  0  0  0  0  0  0  0  0  0  0  0
   -8.8165    4.6939  -16.0968 C   0  0  0  0  0  0  0  0  0  0  0  0
   -7.4675    5.0555  -16.0254 C   0  0  0  0  0  0  0  0  0  0  0  0
   -6.7421    5.0262  -17.2192 C   0  0  0  0  0  0  0  0  0  0  0  0
   -3.9340    4.1906  -14.9389 N   0  0  0  0  0  0  0  0  0  0  0  0
   -3.4212    3.0960  -14.1523 C   0  0  0  0  0  0  0  0  0  0  0  0
   -3.8286    3.1397  -12.6632 C   0  0  0  0  0  0  0  0  0  0  0  0
   -5.3314    3.4383  -12.4405 C   0  0  0  0  0  0  0  0  0  0  0  0
   -6.3631    2.6761  -13.2685 C   0  0  0  0  0  0  0  0  0  0  0  0
   -6.3584    1.2935  -12.9899 O   0  0  0  0  0  0  0  0  0  0  0  0
   -3.3840    1.8438  -11.9610 C   0  0  0  0  0  0  0  0  0  0  0  0
   -1.8872    2.0060  -11.7102 C   0  0  0  0  0  0  0  0  0  0  0  0
   -1.6318    3.5089  -11.6427 C   0  0  0  0  0  0  0  0  0  0  0  0
   -2.9799    4.1792  -11.8965 C   0  0  0  0  0  0  0  0  0  0  0  0
  1  2  2  0
  2  3  1  0
  3  4  1  0
  4  5  1  0
  5  6  2  0
  6  7  1  0
  7  8  2  0
  8  9  1  0
  9 10  2  0
 10 11  1  0
 11 12  2  0
  2 13  1  0
 13 14  1  0
 14 15  1  0
 15 16  1  0
 16 17  1  0
 17 18  1  0
 15 19  1  0
 19 20  1  0
 20 21  1  0
 21 22  1  0
 12  4  1  0
 22 15  1  0
 12  7  1  0
M  END
>  <inchikey>  (192) 
SXSDFTMUNPLXCL-UHFFFAOYSA-N

>  <alias>  (192) 
O=C(Cn1cnc2ccccc21)NCC1(CCO)CCCC1

>  <tags>  (192) 
{'openbind_xx01zvns2b_c1_knitwork_pure', 'fragmenstein_placed'}

>  <HIPPO Pose ID>  (192) 
40546

>  <ref_pdb>  (192) 
41

>  <smiles>  (192) 
C65414-P35

>  <fragmenstein_runtime>  (192) 
5.985995

>  <fragmenstein_outcome>  (192) 
acceptable

>  <fragmenstein_mode>  (192) 
expansion

>  <fragmenstein_error>  (192) 


>  <HIPPO Compound ID>  (192) 
12922

>  <Energy>  (192) 
46.551363

>  <scratch_subdir>  (192) 
/opt/xchem-fragalysis-2/maxwin/BulkDock/SCRATCH/511031/C65414-P35

$$$$
CN1CC[C@@H](CNC(=O)Cn2cnc3ccccc32)C1=O
     RDKit          3D

 21 23  0  0  0  0  0  0  0  0999 V2000
   -5.6724    1.7251   -9.9835 C   0  0  0  0  0  0  0  0  0  0  0  0
   -5.4784    2.3289  -11.2796 N   0  0  0  0  0  0  0  0  0  0  0  0
   -6.5791    2.5185  -12.1884 C   0  0  0  0  0  0  0  0  0  0  0  0
   -5.9442    3.2699  -13.3370 C   0  0  0  0  0  0  0  0  0  0  0  0
   -4.5089    2.7426  -13.3645 C   0  0  1  0  0  0  0  0  0  0  0  0
   -3.4680    3.7273  -13.8663 C   0  0  0  0  0  0  0  0  0  0  0  0
   -3.8328    4.3692  -15.1082 N   0  0  0  0  0  0  0  0  0  0  0  0
   -4.3862    5.7947  -15.3819 C   0  0  0  0  0  0  0  0  0  0  0  0
   -4.7038    6.6391  -14.6389 O   0  0  0  0  0  0  0  0  0  0  0  0
   -4.4080    6.0142  -16.8827 C   0  0  0  0  0  0  0  0  0  0  0  0
   -5.4483    5.3193  -17.6147 N   0  0  0  0  0  0  0  0  0  0  0  0
   -5.2977    4.9495  -18.9237 C   0  0  0  0  0  0  0  0  0  0  0  0
   -6.4077    4.4757  -19.4271 N   0  0  0  0  0  0  0  0  0  0  0  0
   -7.3303    4.5796  -18.4264 C   0  0  0  0  0  0  0  0  0  0  0  0
   -8.6963    4.2760  -18.4579 C   0  0  0  0  0  0  0  0  0  0  0  0
   -9.4377    4.3971  -17.2858 C   0  0  0  0  0  0  0  0  0  0  0  0
   -8.8269    4.8228  -16.1070 C   0  0  0  0  0  0  0  0  0  0  0  0
   -7.4796    5.1966  -16.0710 C   0  0  0  0  0  0  0  0  0  0  0  0
   -6.7468    5.0580  -17.2527 C   0  0  0  0  0  0  0  0  0  0  0  0
   -4.2492    2.3869  -11.9177 C   0  0  0  0  0  0  0  0  0  0  0  0
   -3.1496    2.1577  -11.4400 O   0  0  0  0  0  0  0  0  0  0  0  0
  1  2  1  0
  2  3  1  0
  3  4  1  0
  4  5  1  0
  5  6  1  1
  6  7  1  0
  7  8  1  0
  8  9  2  0
  8 10  1  0
 10 11  1  0
 11 12  1  0
 12 13  2  0
 13 14  1  0
 14 15  2  0
 15 16  1  0
 16 17  2  0
 17 18  1  0
 18 19  2  0
  5 20  1  0
 20 21  2  0
 20  2  1  0
 19 11  1  0
 19 14  1  0
M  END
>  <inchikey>  (193) 
CFWXVAAHZYMXRS-UHFFFAOYSA-N

>  <alias>  (193) 
CN1CC[C@@H](CNC(=O)Cn2cnc3ccccc32)C1=O

>  <tags>  (193) 
{'openbind_xx01zvns2b_c1_knitwork_pure', 'fragmenstein_placed'}

>  <HIPPO Pose ID>  (193) 
40549

>  <ref_pdb>  (193) 
41

>  <smiles>  (193) 
C65425-P35

>  <fragmenstein_runtime>  (193) 
5.596533

>  <fragmenstein_outcome>  (193) 
acceptable

>  <fragmenstein_mode>  (193) 
expansion

>  <fragmenstein_error>  (193) 


>  <HIPPO Compound ID>  (193) 
53652

>  <Energy>  (193) 
8.854276

>  <scratch_subdir>  (193) 
/opt/xchem-fragalysis-2/maxwin/BulkDock/SCRATCH/511031/C65425-P35

$$$$
CN1CCOC[C@H]1CNC(=O)Cn1cnc2ccccc21
     RDKit          3D

 21 23  0  0  0  0  0  0  0  0999 V2000
   -4.6282    3.6218  -10.1936 C   0  0  0  0  0  0  0  0  0  0  0  0
   -4.0670    2.8105  -11.2753 N   0  0  0  0  0  0  0  0  0  0  0  0
   -4.4319    1.3863  -11.0833 C   0  0  0  0  0  0  0  0  0  0  0  0
   -5.9092    1.0951  -11.3846 C   0  0  0  0  0  0  0  0  0  0  0  0
   -6.2586    1.4598  -12.7333 O   0  0  0  0  0  0  0  0  0  0  0  0
   -5.9798    2.8472  -12.9632 C   0  0  0  0  0  0  0  0  0  0  0  0
   -4.5046    3.2135  -12.6500 C   0  0  1  0  0  0  0  0  0  0  0  0
   -4.2153    4.7095  -12.9093 C   0  0  0  0  0  0  0  0  0  0  0  0
   -4.4916    5.1796  -14.2441 N   0  0  0  0  0  0  0  0  0  0  0  0
   -3.9415    4.6999  -15.6173 C   0  0  0  0  0  0  0  0  0  0  0  0
   -3.2416    3.8024  -15.8802 O   0  0  0  0  0  0  0  0  0  0  0  0
   -4.4471    5.6790  -16.6689 C   0  0  0  0  0  0  0  0  0  0  0  0
   -5.4611    5.1182  -17.5336 N   0  0  0  0  0  0  0  0  0  0  0  0
   -5.2926    4.8982  -18.8698 C   0  0  0  0  0  0  0  0  0  0  0  0
   -6.4223    4.5874  -19.4533 N   0  0  0  0  0  0  0  0  0  0  0  0
   -7.3615    4.5973  -18.4611 C   0  0  0  0  0  0  0  0  0  0  0  0
   -8.7387    4.3591  -18.5439 C   0  0  0  0  0  0  0  0  0  0  0  0
   -9.4950    4.3721  -17.3741 C   0  0  0  0  0  0  0  0  0  0  0  0
   -8.8852    4.6148  -16.1442 C   0  0  0  0  0  0  0  0  0  0  0  0
   -7.5220    4.9058  -16.0448 C   0  0  0  0  0  0  0  0  0  0  0  0
   -6.7814    4.8915  -17.2285 C   0  0  0  0  0  0  0  0  0  0  0  0
  1  2  1  0
  2  3  1  0
  3  4  1  0
  4  5  1  0
  5  6  1  0
  6  7  1  0
  7  8  1  1
  8  9  1  0
  9 10  1  0
 10 11  2  0
 10 12  1  0
 12 13  1  0
 13 14  1  0
 14 15  2  0
 15 16  1  0
 16 17  2  0
 17 18  1  0
 18 19  2  0
 19 20  1  0
 20 21  2  0
  7  2  1  0
 21 13  1  0
 21 16  1  0
M  END
>  <inchikey>  (194) 
UVWWLXDIZDZPDF-UHFFFAOYSA-N

>  <alias>  (194) 
CN1CCOC[C@H]1CNC(=O)Cn1cnc2ccccc21

>  <tags>  (194) 
{'openbind_xx01zvns2b_c1_knitwork_pure', 'fragmenstein_placed'}

>  <HIPPO Pose ID>  (194) 
40550

>  <ref_pdb>  (194) 
41

>  <smiles>  (194) 
C65429-P35

>  <fragmenstein_runtime>  (194) 
5.591721

>  <fragmenstein_outcome>  (194) 
acceptable

>  <fragmenstein_mode>  (194) 
expansion

>  <fragmenstein_error>  (194) 


>  <HIPPO Compound ID>  (194) 
3773

>  <Energy>  (194) 
109.881075

>  <scratch_subdir>  (194) 
/opt/xchem-fragalysis-2/maxwin/BulkDock/SCRATCH/511031/C65429-P35

$$$$
O=C(Cn1cnc2ccccc21)NC[C@@H]1CCn2cnnc2C1
     RDKit          3D

 23 26  0  0  0  0  0  0  0  0999 V2000
   -2.8009    4.2298  -16.7788 O   0  0  0  0  0  0  0  0  0  0  0  0
   -3.5544    4.7251  -16.0343 C   0  0  0  0  0  0  0  0  0  0  0  0
   -4.5225    5.8112  -16.4921 C   0  0  0  0  0  0  0  0  0  0  0  0
   -5.4802    5.2930  -17.4434 N   0  0  0  0  0  0  0  0  0  0  0  0
   -5.2318    5.0496  -18.7626 C   0  0  0  0  0  0  0  0  0  0  0  0
   -6.3091    4.6406  -19.3862 N   0  0  0  0  0  0  0  0  0  0  0  0
   -7.3001    4.6366  -18.4422 C   0  0  0  0  0  0  0  0  0  0  0  0
   -8.6587    4.3223  -18.5725 C   0  0  0  0  0  0  0  0  0  0  0  0
   -9.4678    4.3564  -17.4374 C   0  0  0  0  0  0  0  0  0  0  0  0
   -8.9284    4.6975  -16.1975 C   0  0  0  0  0  0  0  0  0  0  0  0
   -7.5890    5.0615  -16.0529 C   0  0  0  0  0  0  0  0  0  0  0  0
   -6.7992    5.0133  -17.1996 C   0  0  0  0  0  0  0  0  0  0  0  0
   -3.7676    4.4901  -14.5108 N   0  0  0  0  0  0  0  0  0  0  0  0
   -3.0368    3.6719  -13.5818 C   0  0  0  0  0  0  0  0  0  0  0  0
   -3.8200    3.1035  -12.3919 C   0  0  2  0  0  0  0  0  0  0  0  0
   -4.8605    2.0386  -12.7897 C   0  0  0  0  0  0  0  0  0  0  0  0
   -6.1659    2.6034  -13.3420 C   0  0  0  0  0  0  0  0  0  0  0  0
   -6.6130    3.7484  -12.5969 N   0  0  0  0  0  0  0  0  0  0  0  0
   -7.8437    4.3141  -12.5805 C   0  0  0  0  0  0  0  0  0  0  0  0
   -7.7684    5.4841  -11.9852 N   0  0  0  0  0  0  0  0  0  0  0  0
   -6.4766    5.6418  -11.5268 N   0  0  0  0  0  0  0  0  0  0  0  0
   -5.8033    4.5616  -11.8563 C   0  0  0  0  0  0  0  0  0  0  0  0
   -4.4164    4.1915  -11.4847 C   0  0  0  0  0  0  0  0  0  0  0  0
  1  2  2  0
  2  3  1  0
  3  4  1  0
  4  5  1  0
  5  6  2  0
  6  7  1  0
  7  8  2  0
  8  9  1  0
  9 10  2  0
 10 11  1  0
 11 12  2  0
  2 13  1  0
 13 14  1  0
 15 14  1  6
 15 16  1  0
 16 17  1  0
 17 18  1  0
 18 19  1  0
 19 20  2  0
 20 21  1  0
 21 22  2  0
 22 23  1  0
 12  4  1  0
 23 15  1  0
 12  7  1  0
 22 18  1  0
M  END
>  <inchikey>  (195) 
SDZSVYLZRFPGOW-UHFFFAOYSA-N

>  <alias>  (195) 
O=C(Cn1cnc2ccccc21)NC[C@@H]1CCn2cnnc2C1

>  <tags>  (195) 
{'openbind_xx01zvns2b_c1_knitwork_pure', 'fragmenstein_placed'}

>  <HIPPO Pose ID>  (195) 
40557

>  <ref_pdb>  (195) 
41

>  <smiles>  (195) 
C113516-P35

>  <fragmenstein_runtime>  (195) 
7.305229

>  <fragmenstein_outcome>  (195) 
acceptable

>  <fragmenstein_mode>  (195) 
expansion

>  <fragmenstein_error>  (195) 


>  <HIPPO Compound ID>  (195) 
3324

>  <Energy>  (195) 
18.458402

>  <scratch_subdir>  (195) 
/opt/xchem-fragalysis-2/maxwin/BulkDock/SCRATCH/511031/C113516-P35

$$$$
O=C(Cn1cnc2ccccc21)NCC1([C@@H]2CCCO2)CCC1
     RDKit          3D

 23 26  0  0  0  0  0  0  0  0999 V2000
   -2.3279    4.8871  -16.5921 O   0  0  0  0  0  0  0  0  0  0  0  0
   -3.4221    4.9334  -16.1850 C   0  0  0  0  0  0  0  0  0  0  0  0
   -4.4382    5.9376  -16.7142 C   0  0  0  0  0  0  0  0  0  0  0  0
   -5.4286    5.3266  -17.5720 N   0  0  0  0  0  0  0  0  0  0  0  0
   -5.2197    4.9747  -18.8735 C   0  0  0  0  0  0  0  0  0  0  0  0
   -6.3176    4.5291  -19.4332 N   0  0  0  0  0  0  0  0  0  0  0  0
   -7.2813    4.6092  -18.4674 C   0  0  0  0  0  0  0  0  0  0  0  0
   -8.6443    4.2946  -18.5416 C   0  0  0  0  0  0  0  0  0  0  0  0
   -9.4245    4.4058  -17.3918 C   0  0  0  0  0  0  0  0  0  0  0  0
   -8.8560    4.8414  -16.1956 C   0  0  0  0  0  0  0  0  0  0  0  0
   -7.5155    5.2290  -16.1189 C   0  0  0  0  0  0  0  0  0  0  0  0
   -6.7458    5.0819  -17.2723 C   0  0  0  0  0  0  0  0  0  0  0  0
   -4.0996    4.1476  -15.0297 N   0  0  0  0  0  0  0  0  0  0  0  0
   -3.5962    3.0782  -14.2036 C   0  0  0  0  0  0  0  0  0  0  0  0
   -4.3597    3.0227  -12.8698 C   0  0  0  0  0  0  0  0  0  0  0  0
   -5.8944    2.8607  -13.0692 C   0  0  2  0  0  0  0  0  0  0  0  0
   -6.7029    4.1276  -12.8236 C   0  0  0  0  0  0  0  0  0  0  0  0
   -7.1872    3.9827  -11.4041 C   0  0  0  0  0  0  0  0  0  0  0  0
   -7.3826    2.4911  -11.2957 C   0  0  0  0  0  0  0  0  0  0  0  0
   -6.4443    1.8712  -12.1893 O   0  0  0  0  0  0  0  0  0  0  0  0
   -3.6697    1.9455  -11.9491 C   0  0  0  0  0  0  0  0  0  0  0  0
   -3.7291    2.9491  -10.7887 C   0  0  0  0  0  0  0  0  0  0  0  0
   -3.8008    4.0712  -11.8351 C   0  0  0  0  0  0  0  0  0  0  0  0
  1  2  2  0
  2  3  1  0
  3  4  1  0
  4  5  1  0
  5  6  2  0
  6  7  1  0
  7  8  2  0
  8  9  1  0
  9 10  2  0
 10 11  1  0
 11 12  2  0
  2 13  1  0
 13 14  1  0
 14 15  1  0
 16 15  1  1
 16 17  1  0
 17 18  1  0
 18 19  1  0
 19 20  1  0
 15 21  1  0
 21 22  1  0
 22 23  1  0
 12  4  1  0
 23 15  1  0
 12  7  1  0
 20 16  1  0
M  END
>  <inchikey>  (196) 
LXAURXAALAYIIV-UHFFFAOYSA-N

>  <alias>  (196) 
O=C(Cn1cnc2ccccc21)NCC1([C@@H]2CCCO2)CCC1

>  <tags>  (196) 
{'openbind_xx01zvns2b_c1_knitwork_pure', 'fragmenstein_placed'}

>  <HIPPO Pose ID>  (196) 
40560

>  <ref_pdb>  (196) 
41

>  <smiles>  (196) 
C113519-P35

>  <fragmenstein_runtime>  (196) 
5.173906

>  <fragmenstein_outcome>  (196) 
acceptable

>  <fragmenstein_mode>  (196) 
expansion

>  <fragmenstein_error>  (196) 


>  <HIPPO Compound ID>  (196) 
2106

>  <Energy>  (196) 
56.383928

>  <scratch_subdir>  (196) 
/opt/xchem-fragalysis-2/maxwin/BulkDock/SCRATCH/511031/C113519-P35

$$$$
COC[C@]1(CNC(=O)Cn2cnc3ccccc32)CCCO1
     RDKit          3D

 22 24  0  0  0  0  0  0  0  0999 V2000
   -7.1515    2.7144  -13.1362 C   0  0  0  0  0  0  0  0  0  0  0  0
   -5.8016    3.0130  -13.4669 O   0  0  0  0  0  0  0  0  0  0  0  0
   -4.9010    2.3647  -12.5604 C   0  0  0  0  0  0  0  0  0  0  0  0
   -3.4557    2.8692  -12.7147 C   0  0  2  0  0  0  0  0  0  0  0  0
   -3.0019    2.9303  -14.1900 C   0  0  0  0  0  0  0  0  0  0  0  0
   -3.7597    3.8676  -14.9809 N   0  0  0  0  0  0  0  0  0  0  0  0
   -3.3220    4.7766  -16.1587 C   0  0  0  0  0  0  0  0  0  0  0  0
   -2.2992    4.8494  -16.7194 O   0  0  0  0  0  0  0  0  0  0  0  0
   -4.4704    5.7277  -16.4592 C   0  0  0  0  0  0  0  0  0  0  0  0
   -5.4269    5.1905  -17.3994 N   0  0  0  0  0  0  0  0  0  0  0  0
   -5.1972    5.0044  -18.7321 C   0  0  0  0  0  0  0  0  0  0  0  0
   -6.2926    4.6623  -19.3656 N   0  0  0  0  0  0  0  0  0  0  0  0
   -7.2752    4.6369  -18.4133 C   0  0  0  0  0  0  0  0  0  0  0  0
   -8.6437    4.3661  -18.5477 C   0  0  0  0  0  0  0  0  0  0  0  0
   -9.4460    4.3702  -17.4071 C   0  0  0  0  0  0  0  0  0  0  0  0
   -8.8894    4.6320  -16.1555 C   0  0  0  0  0  0  0  0  0  0  0  0
   -7.5357    4.9419  -16.0022 C   0  0  0  0  0  0  0  0  0  0  0  0
   -6.7537    4.9356  -17.1574 C   0  0  0  0  0  0  0  0  0  0  0  0
   -2.4999    2.0051  -11.8809 C   0  0  0  0  0  0  0  0  0  0  0  0
   -1.4713    2.9992  -11.4022 C   0  0  0  0  0  0  0  0  0  0  0  0
   -2.3171    4.2286  -11.1689 C   0  0  0  0  0  0  0  0  0  0  0  0
   -3.3526    4.2110  -12.1584 O   0  0  0  0  0  0  0  0  0  0  0  0
  1  2  1  0
  2  3  1  0
  4  3  1  6
  4  5  1  0
  5  6  1  0
  6  7  1  0
  7  8  2  0
  7  9  1  0
  9 10  1  0
 10 11  1  0
 11 12  2  0
 12 13  1  0
 13 14  2  0
 14 15  1  0
 15 16  2  0
 16 17  1  0
 17 18  2  0
  4 19  1  0
 19 20  1  0
 20 21  1  0
 21 22  1  0
 22  4  1  0
 18 10  1  0
 18 13  1  0
M  END
>  <inchikey>  (197) 
QYUSCHLGCXYCBU-UHFFFAOYSA-N

>  <alias>  (197) 
COC[C@]1(CNC(=O)Cn2cnc3ccccc32)CCCO1

>  <tags>  (197) 
{'openbind_xx01zvns2b_c1_knitwork_pure', 'fragmenstein_placed'}

>  <HIPPO Pose ID>  (197) 
40573

>  <ref_pdb>  (197) 
41

>  <smiles>  (197) 
C113531-P35

>  <fragmenstein_runtime>  (197) 
12.202359

>  <fragmenstein_outcome>  (197) 
acceptable

>  <fragmenstein_mode>  (197) 
expansion

>  <fragmenstein_error>  (197) 


>  <HIPPO Compound ID>  (197) 
13043

>  <Energy>  (197) 
75.968045

>  <scratch_subdir>  (197) 
/opt/xchem-fragalysis-2/maxwin/BulkDock/SCRATCH/511031/C113531-P35

$$$$
CCOCCC1(CNC(=O)Cn2cnc3ccccc32)CCC1
     RDKit          3D

 23 25  0  0  0  0  0  0  0  0999 V2000
   -8.2084    4.2095  -11.8996 C   0  0  0  0  0  0  0  0  0  0  0  0
   -7.6418    2.8034  -11.7850 C   0  0  0  0  0  0  0  0  0  0  0  0
   -7.0936    2.3297  -13.0192 O   0  0  0  0  0  0  0  0  0  0  0  0
   -5.8632    2.9454  -13.3738 C   0  0  0  0  0  0  0  0  0  0  0  0
   -4.6820    2.2021  -12.7654 C   0  0  0  0  0  0  0  0  0  0  0  0
   -3.4217    3.0737  -12.6477 C   0  0  0  0  0  0  0  0  0  0  0  0
   -2.7411    3.3503  -13.9896 C   0  0  0  0  0  0  0  0  0  0  0  0
   -3.5273    4.2666  -14.7734 N   0  0  0  0  0  0  0  0  0  0  0  0
   -3.4038    4.6802  -16.2664 C   0  0  0  0  0  0  0  0  0  0  0  0
   -2.6944    4.2830  -17.1057 O   0  0  0  0  0  0  0  0  0  0  0  0
   -4.4566    5.7474  -16.5473 C   0  0  0  0  0  0  0  0  0  0  0  0
   -5.4627    5.2675  -17.4703 N   0  0  0  0  0  0  0  0  0  0  0  0
   -5.2715    5.1003  -18.8116 C   0  0  0  0  0  0  0  0  0  0  0  0
   -6.3785    4.7466  -19.4143 N   0  0  0  0  0  0  0  0  0  0  0  0
   -7.3281    4.6858  -18.4314 C   0  0  0  0  0  0  0  0  0  0  0  0
   -8.6924    4.3856  -18.5307 C   0  0  0  0  0  0  0  0  0  0  0  0
   -9.4578    4.3456  -17.3666 C   0  0  0  0  0  0  0  0  0  0  0  0
   -8.8690    4.5898  -16.1262 C   0  0  0  0  0  0  0  0  0  0  0  0
   -7.5199    4.9339  -16.0075 C   0  0  0  0  0  0  0  0  0  0  0  0
   -6.7736    4.9767  -17.1866 C   0  0  0  0  0  0  0  0  0  0  0  0
   -3.5176    4.2679  -11.6409 C   0  0  0  0  0  0  0  0  0  0  0  0
   -2.1455    3.8540  -11.0812 C   0  0  0  0  0  0  0  0  0  0  0  0
   -2.4042    2.4422  -11.6374 C   0  0  0  0  0  0  0  0  0  0  0  0
  1  2  1  0
  2  3  1  0
  3  4  1  0
  4  5  1  0
  5  6  1  0
  6  7  1  0
  7  8  1  0
  8  9  1  0
  9 10  2  0
  9 11  1  0
 11 12  1  0
 12 13  1  0
 13 14  2  0
 14 15  1  0
 15 16  2  0
 16 17  1  0
 17 18  2  0
 18 19  1  0
 19 20  2  0
  6 21  1  0
 21 22  1  0
 22 23  1  0
 23  6  1  0
 20 12  1  0
 20 15  1  0
M  END
>  <inchikey>  (198) 
NWXOUPXYGFXNRV-UHFFFAOYSA-N

>  <alias>  (198) 
CCOCCC1(CNC(=O)Cn2cnc3ccccc32)CCC1

>  <tags>  (198) 
{'openbind_xx01zvns2b_c1_knitwork_pure', 'fragmenstein_placed'}

>  <HIPPO Pose ID>  (198) 
40576

>  <ref_pdb>  (198) 
41

>  <smiles>  (198) 
C113534-P35

>  <fragmenstein_runtime>  (198) 
6.065892

>  <fragmenstein_outcome>  (198) 
acceptable

>  <fragmenstein_mode>  (198) 
expansion

>  <fragmenstein_error>  (198) 


>  <HIPPO Compound ID>  (198) 
4318

>  <Energy>  (198) 
50.738477

>  <scratch_subdir>  (198) 
/opt/xchem-fragalysis-2/maxwin/BulkDock/SCRATCH/511031/C113534-P35

$$$$
C[S@](=O)(=NC(=O)c1ncccn1)c1cnn2c1CNCC2
     RDKit          3D

 21 23  0  0  0  0  0  0  0  0999 V2000
   -5.6447    4.7725  -12.1479 C   0  0  0  0  0  0  0  0  0  0  0  0
   -7.4055    4.6101  -12.2802 S   0  0  2  0  0  0  0  0  0  0  0  0
   -7.6955    3.2347  -12.6127 O   0  0  0  0  0  0  0  0  0  0  0  0
   -7.9464    5.8316  -13.0341 N   0  0  0  0  0  0  0  0  0  0  0  0
   -8.8024    5.5801  -14.1478 C   0  0  0  0  0  0  0  0  0  0  0  0
   -9.9985    5.8440  -14.0322 O   0  0  0  0  0  0  0  0  0  0  0  0
   -8.3257    5.0607  -15.5272 C   0  0  0  0  0  0  0  0  0  0  0  0
   -9.2657    4.6483  -16.4155 N   0  0  0  0  0  0  0  0  0  0  0  0
   -8.8519    4.4037  -17.6730 C   0  0  0  0  0  0  0  0  0  0  0  0
   -7.5497    4.5561  -18.0758 C   0  0  0  0  0  0  0  0  0  0  0  0
   -6.6671    4.9562  -17.0977 C   0  0  0  0  0  0  0  0  0  0  0  0
   -7.0152    5.2275  -15.8220 N   0  0  0  0  0  0  0  0  0  0  0  0
   -7.9173    4.8263  -10.6485 C   0  0  0  0  0  0  0  0  0  0  0  0
   -8.0673    6.0300   -9.9329 C   0  0  0  0  0  0  0  0  0  0  0  0
   -8.3268    5.8316   -8.6288 N   0  0  0  0  0  0  0  0  0  0  0  0
   -8.3815    4.4855   -8.5297 N   0  0  0  0  0  0  0  0  0  0  0  0
   -8.1391    3.8412   -9.7070 C   0  0  0  0  0  0  0  0  0  0  0  0
   -8.1649    2.3650   -9.7800 C   0  0  0  0  0  0  0  0  0  0  0  0
   -7.9964    1.7573   -8.4557 N   0  0  0  0  0  0  0  0  0  0  0  0
   -8.9234    2.3339   -7.4832 C   0  0  0  0  0  0  0  0  0  0  0  0
   -8.6000    3.8136   -7.2587 C   0  0  0  0  0  0  0  0  0  0  0  0
  2  1  1  1
  2  3  2  0
  2  4  2  0
  4  5  1  0
  5  6  2  0
  5  7  1  0
  7  8  2  0
  8  9  1  0
  9 10  2  0
 10 11  1  0
 11 12  2  0
  2 13  1  0
 13 14  1  0
 14 15  2  0
 15 16  1  0
 16 17  1  0
 17 18  1  0
 18 19  1  0
 19 20  1  0
 20 21  1  0
 12  7  1  0
 17 13  2  0
 21 16  1  0
M  END
>  <inchikey>  (199) 
DKXHFWCRIQOWNK-UHFFFAOYSA-N

>  <alias>  (199) 
C[S@](=O)(=NC(=O)c1ncccn1)c1cnn2c1CNCC2

>  <tags>  (199) 
{'openbind_xx01zvns2b_c1_knitwork_pure', 'fragmenstein_placed'}

>  <HIPPO Pose ID>  (199) 
40631

>  <ref_pdb>  (199) 
41

>  <smiles>  (199) 
C113625-P52

>  <fragmenstein_runtime>  (199) 
2.356904

>  <fragmenstein_outcome>  (199) 
acceptable

>  <fragmenstein_mode>  (199) 
expansion

>  <fragmenstein_error>  (199) 


>  <HIPPO Compound ID>  (199) 
1899

>  <Energy>  (199) 
56.028834

>  <scratch_subdir>  (199) 
/opt/xchem-fragalysis-2/maxwin/BulkDock/SCRATCH/511031/C113625-P52

$$$$
COCc1ccc(N2CC[C@@H](c3ncnc4ccccc34)C2)nc1
     RDKit          3D

 24 27  0  0  0  0  0  0  0  0999 V2000
   -8.5992    6.0605   -6.8420 C   0  0  0  0  0  0  0  0  0  0  0  0
   -7.6892    5.0954   -7.3437 O   0  0  0  0  0  0  0  0  0  0  0  0
   -8.3102    4.1227   -8.1915 C   0  0  0  0  0  0  0  0  0  0  0  0
   -8.0216    4.3410   -9.6502 C   0  0  0  0  0  0  0  0  0  0  0  0
   -8.0708    3.2710  -10.5398 C   0  0  0  0  0  0  0  0  0  0  0  0
   -7.6742    3.4530  -11.8606 C   0  0  0  0  0  0  0  0  0  0  0  0
   -7.2544    4.7075  -12.2884 C   0  0  0  0  0  0  0  0  0  0  0  0
   -6.7146    4.8821  -13.5270 N   0  0  0  0  0  0  0  0  0  0  0  0
   -5.8483    3.9045  -14.1575 C   0  0  0  0  0  0  0  0  0  0  0  0
   -5.0521    4.7376  -15.1728 C   0  0  0  0  0  0  0  0  0  0  0  0
   -6.0192    5.8821  -15.5175 C   0  0  1  0  0  0  0  0  0  0  0  0
   -7.0899    5.4090  -16.4934 C   0  0  0  0  0  0  0  0  0  0  0  0
   -8.3232    5.1848  -15.9882 N   0  0  0  0  0  0  0  0  0  0  0  0
   -9.2012    4.5535  -16.7699 C   0  0  0  0  0  0  0  0  0  0  0  0
   -8.9880    4.1673  -18.0237 N   0  0  0  0  0  0  0  0  0  0  0  0
   -7.7805    4.4433  -18.5251 C   0  0  0  0  0  0  0  0  0  0  0  0
   -7.4893    4.0163  -19.8026 C   0  0  0  0  0  0  0  0  0  0  0  0
   -6.2389    4.2208  -20.4010 C   0  0  0  0  0  0  0  0  0  0  0  0
   -5.2521    4.9050  -19.7190 C   0  0  0  0  0  0  0  0  0  0  0  0
   -5.5133    5.3433  -18.4295 C   0  0  0  0  0  0  0  0  0  0  0  0
   -6.7666    5.0930  -17.8141 C   0  0  0  0  0  0  0  0  0  0  0  0
   -6.5701    6.2000  -14.1178 C   0  0  0  0  0  0  0  0  0  0  0  0
   -7.3292    5.7804  -11.4755 N   0  0  0  0  0  0  0  0  0  0  0  0
   -7.6865    5.5739  -10.1870 C   0  0  0  0  0  0  0  0  0  0  0  0
  1  2  1  0
  2  3  1  0
  3  4  1  0
  4  5  2  0
  5  6  1  0
  6  7  2  0
  7  8  1  0
  8  9  1  0
  9 10  1  0
 10 11  1  0
 11 12  1  6
 12 13  2  0
 13 14  1  0
 14 15  2  0
 15 16  1  0
 16 17  2  0
 17 18  1  0
 18 19  2  0
 19 20  1  0
 20 21  2  0
 11 22  1  0
  7 23  1  0
 23 24  2  0
 24  4  1  0
 22  8  1  0
 21 12  1  0
 21 16  1  0
M  END
>  <inchikey>  (200) 
JTMMYTMJQJLIHZ-UHFFFAOYSA-N

>  <alias>  (200) 
COCc1ccc(N2CC[C@@H](c3ncnc4ccccc34)C2)nc1

>  <tags>  (200) 
{'openbind_xx01zvns2b_c1_knitwork_pure', 'fragmenstein_placed'}

>  <HIPPO Pose ID>  (200) 
40712

>  <ref_pdb>  (200) 
41

>  <smiles>  (200) 
C113639-P51

>  <fragmenstein_runtime>  (200) 
3.479333

>  <fragmenstein_outcome>  (200) 
acceptable

>  <fragmenstein_mode>  (200) 
expansion

>  <fragmenstein_error>  (200) 


>  <HIPPO Compound ID>  (200) 
49916

>  <Energy>  (200) 
29.945405

>  <scratch_subdir>  (200) 
/opt/xchem-fragalysis-2/maxwin/BulkDock/SCRATCH/511031/C113639-P51

$$$$
O=C(c1ccc(N2CC[C@@H](c3ncnc4ccccc34)C2)nc1)C(F)F
     RDKit          3D

 26 29  0  0  0  0  0  0  0  0999 V2000
   -9.3528    3.2091   -7.9692 O   0  0  0  0  0  0  0  0  0  0  0  0
   -8.6603    4.1753   -8.2875 C   0  0  0  0  0  0  0  0  0  0  0  0
   -8.2522    4.3495   -9.7045 C   0  0  0  0  0  0  0  0  0  0  0  0
   -8.1659    3.2498  -10.5468 C   0  0  0  0  0  0  0  0  0  0  0  0
   -7.6485    3.4152  -11.8315 C   0  0  0  0  0  0  0  0  0  0  0  0
   -7.2476    4.6766  -12.2641 C   0  0  0  0  0  0  0  0  0  0  0  0
   -6.5886    4.8606  -13.4378 N   0  0  0  0  0  0  0  0  0  0  0  0
   -5.8278    3.8523  -14.1438 C   0  0  0  0  0  0  0  0  0  0  0  0
   -5.0349    4.6767  -15.1671 C   0  0  0  0  0  0  0  0  0  0  0  0
   -5.9953    5.8334  -15.4893 C   0  0  1  0  0  0  0  0  0  0  0  0
   -7.0801    5.3754  -16.4536 C   0  0  0  0  0  0  0  0  0  0  0  0
   -8.3033    5.1420  -15.9305 N   0  0  0  0  0  0  0  0  0  0  0  0
   -9.1934    4.5268  -16.7122 C   0  0  0  0  0  0  0  0  0  0  0  0
   -9.0002    4.1636  -17.9769 N   0  0  0  0  0  0  0  0  0  0  0  0
   -7.7980    4.4395  -18.4907 C   0  0  0  0  0  0  0  0  0  0  0  0
   -7.5218    4.0231  -19.7754 C   0  0  0  0  0  0  0  0  0  0  0  0
   -6.2736    4.2217  -20.3811 C   0  0  0  0  0  0  0  0  0  0  0  0
   -5.2770    4.8955  -19.7034 C   0  0  0  0  0  0  0  0  0  0  0  0
   -5.5251    5.3259  -18.4090 C   0  0  0  0  0  0  0  0  0  0  0  0
   -6.7737    5.0757  -17.7832 C   0  0  0  0  0  0  0  0  0  0  0  0
   -6.5197    6.1621  -14.0813 C   0  0  0  0  0  0  0  0  0  0  0  0
   -7.4444    5.7673  -11.4913 N   0  0  0  0  0  0  0  0  0  0  0  0
   -7.9190    5.5837  -10.2378 C   0  0  0  0  0  0  0  0  0  0  0  0
   -8.2642    5.2505   -7.2956 C   0  0  0  0  0  0  0  0  0  0  0  0
   -8.2966    4.8273   -5.9991 F   0  0  0  0  0  0  0  0  0  0  0  0
   -7.0122    5.7468   -7.4995 F   0  0  0  0  0  0  0  0  0  0  0  0
  1  2  2  0
  2  3  1  0
  3  4  2  0
  4  5  1  0
  5  6  2  0
  6  7  1  0
  7  8  1  0
  8  9  1  0
  9 10  1  0
 10 11  1  6
 11 12  2  0
 12 13  1  0
 13 14  2  0
 14 15  1  0
 15 16  2  0
 16 17  1  0
 17 18  2  0
 18 19  1  0
 19 20  2  0
 10 21  1  0
  6 22  1  0
 22 23  2  0
  2 24  1  0
 24 25  1  0
 24 26  1  0
 23  3  1  0
 21  7  1  0
 20 11  1  0
 20 15  1  0
M  END
>  <inchikey>  (201) 
AAQXQMSBEOFRQL-UHFFFAOYSA-N

>  <alias>  (201) 
O=C(c1ccc(N2CC[C@@H](c3ncnc4ccccc34)C2)nc1)C(F)F

>  <tags>  (201) 
{'openbind_xx01zvns2b_c1_knitwork_pure', 'fragmenstein_placed'}

>  <HIPPO Pose ID>  (201) 
40718

>  <ref_pdb>  (201) 
41

>  <smiles>  (201) 
C113644-P51

>  <fragmenstein_runtime>  (201) 
1.995914

>  <fragmenstein_outcome>  (201) 
acceptable

>  <fragmenstein_mode>  (201) 
expansion

>  <fragmenstein_error>  (201) 


>  <HIPPO Compound ID>  (201) 
117036

>  <Energy>  (201) 
62.762813

>  <scratch_subdir>  (201) 
/opt/xchem-fragalysis-2/maxwin/BulkDock/SCRATCH/511031/C113644-P51

$$$$
Fc1ccc(N2CC[C@@H](c3ncnc4ccccc34)C2)nc1
     RDKit          3D

 22 25  0  0  0  0  0  0  0  0999 V2000
   -9.1400    4.2251   -8.8220 F   0  0  0  0  0  0  0  0  0  0  0  0
   -8.5232    4.3654  -10.0011 C   0  0  0  0  0  0  0  0  0  0  0  0
   -8.2091    3.2637  -10.7655 C   0  0  0  0  0  0  0  0  0  0  0  0
   -7.4823    3.4502  -11.9392 C   0  0  0  0  0  0  0  0  0  0  0  0
   -7.0974    4.7350  -12.3274 C   0  0  0  0  0  0  0  0  0  0  0  0
   -6.2532    4.9558  -13.3783 N   0  0  0  0  0  0  0  0  0  0  0  0
   -5.5949    3.9290  -14.1586 C   0  0  0  0  0  0  0  0  0  0  0  0
   -4.8635    4.7414  -15.2306 C   0  0  0  0  0  0  0  0  0  0  0  0
   -5.8578    5.8770  -15.5177 C   0  0  1  0  0  0  0  0  0  0  0  0
   -6.9815    5.3934  -16.4253 C   0  0  0  0  0  0  0  0  0  0  0  0
   -8.1761    5.1485  -15.8446 N   0  0  0  0  0  0  0  0  0  0  0  0
   -9.1005    4.5336  -16.5874 C   0  0  0  0  0  0  0  0  0  0  0  0
   -8.9661    4.1767  -17.8625 N   0  0  0  0  0  0  0  0  0  0  0  0
   -7.7866    4.4503  -18.4296 C   0  0  0  0  0  0  0  0  0  0  0  0
   -7.5606    4.0272  -19.7227 C   0  0  0  0  0  0  0  0  0  0  0  0
   -6.3294    4.2090  -20.3689 C   0  0  0  0  0  0  0  0  0  0  0  0
   -5.3078    4.8881  -19.7362 C   0  0  0  0  0  0  0  0  0  0  0  0
   -5.5101    5.3353  -18.4407 C   0  0  0  0  0  0  0  0  0  0  0  0
   -6.7334    5.0886  -17.7661 C   0  0  0  0  0  0  0  0  0  0  0  0
   -6.3226    6.2261  -14.0929 C   0  0  0  0  0  0  0  0  0  0  0  0
   -7.4792    5.8204  -11.6114 N   0  0  0  0  0  0  0  0  0  0  0  0
   -8.1677    5.6128  -10.4662 C   0  0  0  0  0  0  0  0  0  0  0  0
  1  2  1  0
  2  3  2  0
  3  4  1  0
  4  5  2  0
  5  6  1  0
  6  7  1  0
  7  8  1  0
  8  9  1  0
  9 10  1  6
 10 11  2  0
 11 12  1  0
 12 13  2  0
 13 14  1  0
 14 15  2  0
 15 16  1  0
 16 17  2  0
 17 18  1  0
 18 19  2  0
  9 20  1  0
  5 21  1  0
 21 22  2  0
 22  2  1  0
 20  6  1  0
 19 10  1  0
 19 14  1  0
M  END
>  <inchikey>  (202) 
LDVOFSUEOXRUNG-UHFFFAOYSA-N

>  <alias>  (202) 
Fc1ccc(N2CC[C@@H](c3ncnc4ccccc34)C2)nc1

>  <tags>  (202) 
{'openbind_xx01zvns2b_c1_knitwork_pure', 'fragmenstein_placed'}

>  <HIPPO Pose ID>  (202) 
40719

>  <ref_pdb>  (202) 
41

>  <smiles>  (202) 
C113645-P51

>  <fragmenstein_runtime>  (202) 
2.140559

>  <fragmenstein_outcome>  (202) 
acceptable

>  <fragmenstein_mode>  (202) 
expansion

>  <fragmenstein_error>  (202) 


>  <HIPPO Compound ID>  (202) 
17150

>  <Energy>  (202) 
24.773305

>  <scratch_subdir>  (202) 
/opt/xchem-fragalysis-2/maxwin/BulkDock/SCRATCH/511031/C113645-P51

$$$$
FC(F)Oc1ccc(N2CC[C@@H](c3ncnc4ccccc34)C2)nc1
     RDKit          3D

 25 28  0  0  0  0  0  0  0  0999 V2000
   -7.9732    5.4812   -7.4063 F   0  0  0  0  0  0  0  0  0  0  0  0
   -8.0878    4.1575   -7.6922 C   0  0  0  0  0  0  0  0  0  0  0  0
   -8.6277    3.5822   -6.5841 F   0  0  0  0  0  0  0  0  0  0  0  0
   -9.0322    4.0056   -8.7452 O   0  0  0  0  0  0  0  0  0  0  0  0
   -8.4513    4.2580   -9.9514 C   0  0  0  0  0  0  0  0  0  0  0  0
   -8.3006    3.2149  -10.8433 C   0  0  0  0  0  0  0  0  0  0  0  0
   -7.6084    3.4353  -12.0305 C   0  0  0  0  0  0  0  0  0  0  0  0
   -7.1151    4.7047  -12.3227 C   0  0  0  0  0  0  0  0  0  0  0  0
   -6.2802    4.9363  -13.3775 N   0  0  0  0  0  0  0  0  0  0  0  0
   -5.6248    3.9192  -14.1714 C   0  0  0  0  0  0  0  0  0  0  0  0
   -4.8842    4.7475  -15.2251 C   0  0  0  0  0  0  0  0  0  0  0  0
   -5.8787    5.8866  -15.5015 C   0  0  1  0  0  0  0  0  0  0  0  0
   -6.9987    5.4073  -16.4171 C   0  0  0  0  0  0  0  0  0  0  0  0
   -8.1946    5.1582  -15.8413 N   0  0  0  0  0  0  0  0  0  0  0  0
   -9.1128    4.5375  -16.5869 C   0  0  0  0  0  0  0  0  0  0  0  0
   -8.9715    4.1776  -17.8605 N   0  0  0  0  0  0  0  0  0  0  0  0
   -7.7918    4.4566  -18.4237 C   0  0  0  0  0  0  0  0  0  0  0  0
   -7.5596    4.0310  -19.7150 C   0  0  0  0  0  0  0  0  0  0  0  0
   -6.3276    4.2170  -20.3578 C   0  0  0  0  0  0  0  0  0  0  0  0
   -5.3116    4.9030  -19.7230 C   0  0  0  0  0  0  0  0  0  0  0  0
   -5.5205    5.3532  -18.4292 C   0  0  0  0  0  0  0  0  0  0  0  0
   -6.7444    5.1022  -17.7574 C   0  0  0  0  0  0  0  0  0  0  0  0
   -6.3456    6.2175  -14.0708 C   0  0  0  0  0  0  0  0  0  0  0  0
   -7.3778    5.7535  -11.5084 N   0  0  0  0  0  0  0  0  0  0  0  0
   -8.0297    5.5139  -10.3479 C   0  0  0  0  0  0  0  0  0  0  0  0
  1  2  1  0
  2  3  1  0
  2  4  1  0
  4  5  1  0
  5  6  2  0
  6  7  1  0
  7  8  2  0
  8  9  1  0
  9 10  1  0
 10 11  1  0
 11 12  1  0
 12 13  1  6
 13 14  2  0
 14 15  1  0
 15 16  2  0
 16 17  1  0
 17 18  2  0
 18 19  1  0
 19 20  2  0
 20 21  1  0
 21 22  2  0
 12 23  1  0
  8 24  1  0
 24 25  2  0
 25  5  1  0
 23  9  1  0
 22 13  1  0
 22 17  1  0
M  END
>  <inchikey>  (203) 
XIWDUIKZHOIBIV-UHFFFAOYSA-N

>  <alias>  (203) 
FC(F)Oc1ccc(N2CC[C@@H](c3ncnc4ccccc34)C2)nc1

>  <tags>  (203) 
{'openbind_xx01zvns2b_c1_knitwork_pure', 'fragmenstein_placed'}

>  <HIPPO Pose ID>  (203) 
40723

>  <ref_pdb>  (203) 
41

>  <smiles>  (203) 
C113649-P51

>  <fragmenstein_runtime>  (203) 
3.062122

>  <fragmenstein_outcome>  (203) 
acceptable

>  <fragmenstein_mode>  (203) 
expansion

>  <fragmenstein_error>  (203) 


>  <HIPPO Compound ID>  (203) 
13423

>  <Energy>  (203) 
30.919562

>  <scratch_subdir>  (203) 
/opt/xchem-fragalysis-2/maxwin/BulkDock/SCRATCH/511031/C113649-P51

$$$$
Clc1ccc(N2CC[C@@H](c3ncnc4ccccc34)C2)nc1
     RDKit          3D

 22 25  0  0  0  0  0  0  0  0999 V2000
   -8.7584    4.0676   -8.2178 Cl  0  0  0  0  0  0  0  0  0  0  0  0
   -8.2730    4.2954   -9.8465 C   0  0  0  0  0  0  0  0  0  0  0  0
   -8.0550    3.2122  -10.6738 C   0  0  0  0  0  0  0  0  0  0  0  0
   -7.4800    3.4237  -11.9243 C   0  0  0  0  0  0  0  0  0  0  0  0
   -7.1393    4.7142  -12.3261 C   0  0  0  0  0  0  0  0  0  0  0  0
   -6.3896    4.9446  -13.4386 N   0  0  0  0  0  0  0  0  0  0  0  0
   -5.6608    3.9471  -14.1922 C   0  0  0  0  0  0  0  0  0  0  0  0
   -4.9213    4.7877  -15.2373 C   0  0  0  0  0  0  0  0  0  0  0  0
   -5.9275    5.9122  -15.5316 C   0  0  1  0  0  0  0  0  0  0  0  0
   -7.0305    5.4179  -16.4587 C   0  0  0  0  0  0  0  0  0  0  0  0
   -8.2345    5.1688  -15.8989 N   0  0  0  0  0  0  0  0  0  0  0  0
   -9.1384    4.5363  -16.6513 C   0  0  0  0  0  0  0  0  0  0  0  0
   -8.9756    4.1666  -17.9188 N   0  0  0  0  0  0  0  0  0  0  0  0
   -7.7897    4.4500  -18.4671 C   0  0  0  0  0  0  0  0  0  0  0  0
   -7.5376    4.0194  -19.7525 C   0  0  0  0  0  0  0  0  0  0  0  0
   -6.3011    4.2142  -20.3837 C   0  0  0  0  0  0  0  0  0  0  0  0
   -5.2979    4.9106  -19.7400 C   0  0  0  0  0  0  0  0  0  0  0  0
   -5.5252    5.3638  -18.4503 C   0  0  0  0  0  0  0  0  0  0  0  0
   -6.7556    5.1066  -17.7924 C   0  0  0  0  0  0  0  0  0  0  0  0
   -6.4212    6.2349  -14.1099 C   0  0  0  0  0  0  0  0  0  0  0  0
   -7.4614    5.7859  -11.5651 N   0  0  0  0  0  0  0  0  0  0  0  0
   -8.0031    5.5547  -10.3456 C   0  0  0  0  0  0  0  0  0  0  0  0
  1  2  1  0
  2  3  2  0
  3  4  1  0
  4  5  2  0
  5  6  1  0
  6  7  1  0
  7  8  1  0
  8  9  1  0
  9 10  1  6
 10 11  2  0
 11 12  1  0
 12 13  2  0
 13 14  1  0
 14 15  2  0
 15 16  1  0
 16 17  2  0
 17 18  1  0
 18 19  2  0
  9 20  1  0
  5 21  1  0
 21 22  2  0
 22  2  1  0
 20  6  1  0
 19 10  1  0
 19 14  1  0
M  END
>  <inchikey>  (204) 
VLRKSNUAOCDPAF-UHFFFAOYSA-N

>  <alias>  (204) 
Clc1ccc(N2CC[C@@H](c3ncnc4ccccc34)C2)nc1

>  <tags>  (204) 
{'openbind_xx01zvns2b_c1_knitwork_pure', 'fragmenstein_placed'}

>  <HIPPO Pose ID>  (204) 
40724

>  <ref_pdb>  (204) 
41

>  <smiles>  (204) 
C113650-P51

>  <fragmenstein_runtime>  (204) 
1.983743

>  <fragmenstein_outcome>  (204) 
acceptable

>  <fragmenstein_mode>  (204) 
expansion

>  <fragmenstein_error>  (204) 


>  <HIPPO Compound ID>  (204) 
5783

>  <Energy>  (204) 
26.505249

>  <scratch_subdir>  (204) 
/opt/xchem-fragalysis-2/maxwin/BulkDock/SCRATCH/511031/C113650-P51

$$$$
CS(C)(=O)=Nc1ccc(N2CC[C@@H](c3ncnc4ccccc34)C2)nc1
     RDKit          3D

 26 29  0  0  0  0  0  0  0  0999 V2000
   -9.4780    4.1434   -5.9061 C   0  0  0  0  0  0  0  0  0  0  0  0
   -8.3733    3.8503   -7.2713 S   0  0  0  0  0  0  0  0  0  0  0  0
   -8.5106    2.0775   -7.4266 C   0  0  0  0  0  0  0  0  0  0  0  0
   -7.0578    4.2303   -6.7904 O   0  0  0  0  0  0  0  0  0  0  0  0
   -9.0553    4.4725   -8.5040 N   0  0  0  0  0  0  0  0  0  0  0  0
   -8.3970    4.5266   -9.8114 C   0  0  0  0  0  0  0  0  0  0  0  0
   -8.3010    3.4217  -10.6396 C   0  0  0  0  0  0  0  0  0  0  0  0
   -7.6284    3.5386  -11.8593 C   0  0  0  0  0  0  0  0  0  0  0  0
   -7.0982    4.7674  -12.2507 C   0  0  0  0  0  0  0  0  0  0  0  0
   -6.3326    4.9107  -13.3662 N   0  0  0  0  0  0  0  0  0  0  0  0
   -5.6990    3.8495  -14.1161 C   0  0  0  0  0  0  0  0  0  0  0  0
   -4.9137    4.6226  -15.1833 C   0  0  0  0  0  0  0  0  0  0  0  0
   -5.8449    5.8059  -15.4899 C   0  0  1  0  0  0  0  0  0  0  0  0
   -6.9755    5.3664  -16.4117 C   0  0  0  0  0  0  0  0  0  0  0  0
   -8.1791    5.1410  -15.8419 N   0  0  0  0  0  0  0  0  0  0  0  0
   -9.1078    4.5453  -16.5945 C   0  0  0  0  0  0  0  0  0  0  0  0
   -8.9708    4.1920  -17.8704 N   0  0  0  0  0  0  0  0  0  0  0  0
   -7.7840    4.4511  -18.4282 C   0  0  0  0  0  0  0  0  0  0  0  0
   -7.5587    4.0356  -19.7238 C   0  0  0  0  0  0  0  0  0  0  0  0
   -6.3234    4.2084  -20.3643 C   0  0  0  0  0  0  0  0  0  0  0  0
   -5.2931    4.8625  -19.7190 C   0  0  0  0  0  0  0  0  0  0  0  0
   -5.4923    5.2958  -18.4182 C   0  0  0  0  0  0  0  0  0  0  0  0
   -6.7241    5.0665  -17.7532 C   0  0  0  0  0  0  0  0  0  0  0  0
   -6.3085    6.1839  -14.0731 C   0  0  0  0  0  0  0  0  0  0  0  0
   -7.2751    5.8724  -11.4928 N   0  0  0  0  0  0  0  0  0  0  0  0
   -7.8964    5.7235  -10.2962 C   0  0  0  0  0  0  0  0  0  0  0  0
  1  2  1  0
  2  3  1  0
  2  4  2  0
  2  5  2  0
  5  6  1  0
  6  7  2  0
  7  8  1  0
  8  9  2  0
  9 10  1  0
 10 11  1  0
 11 12  1  0
 12 13  1  0
 13 14  1  6
 14 15  2  0
 15 16  1  0
 16 17  2  0
 17 18  1  0
 18 19  2  0
 19 20  1  0
 20 21  2  0
 21 22  1  0
 22 23  2  0
 13 24  1  0
  9 25  1  0
 25 26  2  0
 26  6  1  0
 24 10  1  0
 23 14  1  0
 23 18  1  0
M  END
>  <inchikey>  (205) 
VFEKVCCASPPGTR-UHFFFAOYSA-N

>  <alias>  (205) 
CS(C)(=O)=Nc1ccc(N2CC[C@@H](c3ncnc4ccccc34)C2)nc1

>  <tags>  (205) 
{'openbind_xx01zvns2b_c1_knitwork_pure', 'fragmenstein_placed'}

>  <HIPPO Pose ID>  (205) 
40725

>  <ref_pdb>  (205) 
41

>  <smiles>  (205) 
C113651-P51

>  <fragmenstein_runtime>  (205) 
3.326376

>  <fragmenstein_outcome>  (205) 
acceptable

>  <fragmenstein_mode>  (205) 
expansion

>  <fragmenstein_error>  (205) 


>  <HIPPO Compound ID>  (205) 
114282

>  <Energy>  (205) 
20.564665

>  <scratch_subdir>  (205) 
/opt/xchem-fragalysis-2/maxwin/BulkDock/SCRATCH/511031/C113651-P51

$$$$
CCOC(=O)c1ccc(N2CC[C@@H](c3ncnc4ccccc34)C2)nc1
     RDKit          3D

 26 29  0  0  0  0  0  0  0  0999 V2000
   -8.4912    5.5533   -5.4208 C   0  0  0  0  0  0  0  0  0  0  0  0
   -8.9035    4.4031   -6.3181 C   0  0  0  0  0  0  0  0  0  0  0  0
   -8.5779    4.7522   -7.6701 O   0  0  0  0  0  0  0  0  0  0  0  0
   -8.9152    3.7945   -8.5718 C   0  0  0  0  0  0  0  0  0  0  0  0
   -9.5516    2.7814   -8.3300 O   0  0  0  0  0  0  0  0  0  0  0  0
   -8.3817    4.1327   -9.9062 C   0  0  0  0  0  0  0  0  0  0  0  0
   -8.2726    3.1340  -10.8607 C   0  0  0  0  0  0  0  0  0  0  0  0
   -7.6314    3.4021  -12.0666 C   0  0  0  0  0  0  0  0  0  0  0  0
   -7.1380    4.6779  -12.3218 C   0  0  0  0  0  0  0  0  0  0  0  0
   -6.3393    4.9387  -13.3955 N   0  0  0  0  0  0  0  0  0  0  0  0
   -5.6408    3.9451  -14.1824 C   0  0  0  0  0  0  0  0  0  0  0  0
   -4.9067    4.7983  -15.2205 C   0  0  0  0  0  0  0  0  0  0  0  0
   -5.9205    5.9214  -15.4954 C   0  0  1  0  0  0  0  0  0  0  0  0
   -7.0274    5.4276  -16.4202 C   0  0  0  0  0  0  0  0  0  0  0  0
   -8.2265    5.1711  -15.8540 N   0  0  0  0  0  0  0  0  0  0  0  0
   -9.1314    4.5363  -16.6037 C   0  0  0  0  0  0  0  0  0  0  0  0
   -8.9763    4.1712  -17.8739 N   0  0  0  0  0  0  0  0  0  0  0  0
   -7.7953    4.4598  -18.4289 C   0  0  0  0  0  0  0  0  0  0  0  0
   -7.5506    4.0310  -19.7169 C   0  0  0  0  0  0  0  0  0  0  0  0
   -6.3169    4.2264  -20.3530 C   0  0  0  0  0  0  0  0  0  0  0  0
   -5.3121    4.9251  -19.7137 C   0  0  0  0  0  0  0  0  0  0  0  0
   -5.5341    5.3794  -18.4229 C   0  0  0  0  0  0  0  0  0  0  0  0
   -6.7596    5.1190  -17.7575 C   0  0  0  0  0  0  0  0  0  0  0  0
   -6.4015    6.2306  -14.0628 C   0  0  0  0  0  0  0  0  0  0  0  0
   -7.3597    5.6915  -11.4532 N   0  0  0  0  0  0  0  0  0  0  0  0
   -7.9477    5.3967  -10.2634 C   0  0  0  0  0  0  0  0  0  0  0  0
  1  2  1  0
  2  3  1  0
  3  4  1  0
  4  5  2  0
  4  6  1  0
  6  7  2  0
  7  8  1  0
  8  9  2  0
  9 10  1  0
 10 11  1  0
 11 12  1  0
 12 13  1  0
 13 14  1  6
 14 15  2  0
 15 16  1  0
 16 17  2  0
 17 18  1  0
 18 19  2  0
 19 20  1  0
 20 21  2  0
 21 22  1  0
 22 23  2  0
 13 24  1  0
  9 25  1  0
 25 26  2  0
 26  6  1  0
 24 10  1  0
 23 14  1  0
 23 18  1  0
M  END
>  <inchikey>  (206) 
HIEBIAPEIKIBMX-UHFFFAOYSA-N

>  <alias>  (206) 
CCOC(=O)c1ccc(N2CC[C@@H](c3ncnc4ccccc34)C2)nc1

>  <tags>  (206) 
{'openbind_xx01zvns2b_c1_knitwork_pure', 'fragmenstein_placed'}

>  <HIPPO Pose ID>  (206) 
40726

>  <ref_pdb>  (206) 
41

>  <smiles>  (206) 
C113652-P51

>  <fragmenstein_runtime>  (206) 
4.506684

>  <fragmenstein_outcome>  (206) 
acceptable

>  <fragmenstein_mode>  (206) 
expansion

>  <fragmenstein_error>  (206) 


>  <HIPPO Compound ID>  (206) 
57127

>  <Energy>  (206) 
26.330936

>  <scratch_subdir>  (206) 
/opt/xchem-fragalysis-2/maxwin/BulkDock/SCRATCH/511031/C113652-P51

$$$$
CCOC(=O)c1ccc(N2CC[C@H](c3ncnc4ccccc34)C2)nc1
     RDKit          3D

 26 29  0  0  0  0  0  0  0  0999 V2000
   -9.1290    4.8176   -5.2551 C   0  0  0  0  0  0  0  0  0  0  0  0
   -9.3135    3.7374   -6.3028 C   0  0  0  0  0  0  0  0  0  0  0  0
   -8.9035    4.2709   -7.5697 O   0  0  0  0  0  0  0  0  0  0  0  0
   -9.1377    3.4371   -8.6162 C   0  0  0  0  0  0  0  0  0  0  0  0
   -9.7551    2.3860   -8.5612 O   0  0  0  0  0  0  0  0  0  0  0  0
   -8.5214    3.9737   -9.8492 C   0  0  0  0  0  0  0  0  0  0  0  0
   -8.3966    3.1581  -10.9632 C   0  0  0  0  0  0  0  0  0  0  0  0
   -7.6850    3.6103  -12.0734 C   0  0  0  0  0  0  0  0  0  0  0  0
   -7.1325    4.8890  -12.0756 C   0  0  0  0  0  0  0  0  0  0  0  0
   -6.2623    5.3276  -13.0350 N   0  0  0  0  0  0  0  0  0  0  0  0
   -6.3460    6.7148  -13.4699 C   0  0  0  0  0  0  0  0  0  0  0  0
   -5.4825    6.7527  -14.7371 C   0  0  0  0  0  0  0  0  0  0  0  0
   -5.5755    5.3344  -15.2827 C   0  0  2  0  0  0  0  0  0  0  0  0
   -6.8176    5.0707  -16.1146 C   0  0  0  0  0  0  0  0  0  0  0  0
   -7.9587    4.8298  -15.4397 N   0  0  0  0  0  0  0  0  0  0  0  0
   -8.9724    4.3013  -16.1268 C   0  0  0  0  0  0  0  0  0  0  0  0
   -8.9992    4.0572  -17.4310 N   0  0  0  0  0  0  0  0  0  0  0  0
   -7.8828    4.3520  -18.0888 C   0  0  0  0  0  0  0  0  0  0  0  0
   -7.8156    4.0027  -19.4100 C   0  0  0  0  0  0  0  0  0  0  0  0
   -6.6323    4.1679  -20.1217 C   0  0  0  0  0  0  0  0  0  0  0  0
   -5.5441    4.8263  -19.5767 C   0  0  0  0  0  0  0  0  0  0  0  0
   -5.5988    5.2125  -18.2577 C   0  0  0  0  0  0  0  0  0  0  0  0
   -6.7417    4.9120  -17.4913 C   0  0  0  0  0  0  0  0  0  0  0  0
   -5.5944    4.4863  -14.0093 C   0  0  0  0  0  0  0  0  0  0  0  0
   -7.3768    5.7384  -11.0530 N   0  0  0  0  0  0  0  0  0  0  0  0
   -8.0294    5.2617   -9.9604 C   0  0  0  0  0  0  0  0  0  0  0  0
  1  2  1  0
  2  3  1  0
  3  4  1  0
  4  5  2  0
  4  6  1  0
  6  7  2  0
  7  8  1  0
  8  9  2  0
  9 10  1  0
 10 11  1  0
 11 12  1  0
 12 13  1  0
 13 14  1  1
 14 15  2  0
 15 16  1  0
 16 17  2  0
 17 18  1  0
 18 19  2  0
 19 20  1  0
 20 21  2  0
 21 22  1  0
 22 23  2  0
 13 24  1  0
  9 25  1  0
 25 26  2  0
 26  6  1  0
 24 10  1  0
 23 14  1  0
 23 18  1  0
M  END
>  <inchikey>  (207) 
PQFMUEPOEUMBKF-UHFFFAOYSA-N

>  <alias>  (207) 
CCOC(=O)c1ccc(N2CC[C@H](c3ncnc4ccccc34)C2)nc1

>  <tags>  (207) 
{'openbind_xx01zvns2b_c1_knitwork_pure', 'fragmenstein_placed'}

>  <HIPPO Pose ID>  (207) 
40727

>  <ref_pdb>  (207) 
41

>  <smiles>  (207) 
C113652-P95

>  <fragmenstein_runtime>  (207) 
6.810313

>  <fragmenstein_outcome>  (207) 
acceptable

>  <fragmenstein_mode>  (207) 
expansion

>  <fragmenstein_error>  (207) 


>  <HIPPO Compound ID>  (207) 
114937

>  <Energy>  (207) 
30.895999

>  <scratch_subdir>  (207) 
/opt/xchem-fragalysis-2/maxwin/BulkDock/SCRATCH/511031/C113652-P95

$$$$
CP(C)(=O)c1ccc(N2CC[C@H](c3ncnc4ccccc34)C2)nc1
     RDKit          3D

 25 28  0  0  0  0  0  0  0  0999 V2000
   -8.8640    2.5678   -7.4039 C   0  0  0  0  0  0  0  0  0  0  0  0
   -8.4577    4.2676   -7.8007 P   0  0  0  0  0  0  0  0  0  0  0  0
   -6.8138    4.5153   -7.1035 C   0  0  0  0  0  0  0  0  0  0  0  0
   -9.3931    5.2043   -7.0721 O   0  0  0  0  0  0  0  0  0  0  0  0
   -8.2896    4.4991   -9.5388 C   0  0  0  0  0  0  0  0  0  0  0  0
   -8.2312    3.4619  -10.4619 C   0  0  0  0  0  0  0  0  0  0  0  0
   -7.8322    3.7290  -11.7711 C   0  0  0  0  0  0  0  0  0  0  0  0
   -7.4857    5.0252  -12.1437 C   0  0  0  0  0  0  0  0  0  0  0  0
   -6.8960    5.3052  -13.3398 N   0  0  0  0  0  0  0  0  0  0  0  0
   -6.6643    6.6701  -13.7844 C   0  0  0  0  0  0  0  0  0  0  0  0
   -5.6551    6.5271  -14.9317 C   0  0  0  0  0  0  0  0  0  0  0  0
   -5.8548    5.1002  -15.4235 C   0  0  2  0  0  0  0  0  0  0  0  0
   -6.9772    4.9647  -16.4325 C   0  0  0  0  0  0  0  0  0  0  0  0
   -8.2334    4.8644  -15.9438 N   0  0  0  0  0  0  0  0  0  0  0  0
   -9.1873    4.4743  -16.7889 C   0  0  0  0  0  0  0  0  0  0  0  0
   -9.0111    4.1920  -18.0753 N   0  0  0  0  0  0  0  0  0  0  0  0
   -7.7743    4.3705  -18.5512 C   0  0  0  0  0  0  0  0  0  0  0  0
   -7.5183    4.0401  -19.8622 C   0  0  0  0  0  0  0  0  0  0  0  0
   -6.2564    4.2082  -20.4520 C   0  0  0  0  0  0  0  0  0  0  0  0
   -5.2159    4.7439  -19.7201 C   0  0  0  0  0  0  0  0  0  0  0  0
   -5.4298    5.0414  -18.3851 C   0  0  0  0  0  0  0  0  0  0  0  0
   -6.6964    4.8195  -17.7867 C   0  0  0  0  0  0  0  0  0  0  0  0
   -6.1773    4.3338  -14.1391 C   0  0  0  0  0  0  0  0  0  0  0  0
   -7.6709    6.0519  -11.2899 N   0  0  0  0  0  0  0  0  0  0  0  0
   -8.0617    5.7742  -10.0264 C   0  0  0  0  0  0  0  0  0  0  0  0
  1  2  1  0
  2  3  1  0
  2  4  2  0
  2  5  1  0
  5  6  2  0
  6  7  1  0
  7  8  2  0
  8  9  1  0
  9 10  1  0
 10 11  1  0
 11 12  1  0
 12 13  1  6
 13 14  2  0
 14 15  1  0
 15 16  2  0
 16 17  1  0
 17 18  2  0
 18 19  1  0
 19 20  2  0
 20 21  1  0
 21 22  2  0
 12 23  1  0
  8 24  1  0
 24 25  2  0
 25  5  1  0
 23  9  1  0
 22 13  1  0
 22 17  1  0
M  END
>  <inchikey>  (208) 
ULYDAMBPGPFUNZ-UHFFFAOYSA-N

>  <alias>  (208) 
CP(C)(=O)c1ccc(N2CC[C@H](c3ncnc4ccccc34)C2)nc1

>  <tags>  (208) 
{'openbind_xx01zvns2b_c1_knitwork_pure', 'fragmenstein_placed'}

>  <HIPPO Pose ID>  (208) 
40728

>  <ref_pdb>  (208) 
41

>  <smiles>  (208) 
C113653-P51

>  <fragmenstein_runtime>  (208) 
4.484842

>  <fragmenstein_outcome>  (208) 
acceptable

>  <fragmenstein_mode>  (208) 
expansion

>  <fragmenstein_error>  (208) 


>  <HIPPO Compound ID>  (208) 
7556

>  <Energy>  (208) 
28.683349

>  <scratch_subdir>  (208) 
/opt/xchem-fragalysis-2/maxwin/BulkDock/SCRATCH/511031/C113653-P51

$$$$
NS(=O)(=O)c1ccc(N2CC[C@H](c3ncnc4ccccc34)C2)nc1
     RDKit          3D

 25 28  0  0  0  0  0  0  0  0999 V2000
   -9.8610    2.5534   -8.4566 N   0  0  0  0  0  0  0  0  0  0  0  0
   -8.2598    3.0242   -8.5416 S   0  0  0  0  0  0  0  0  0  0  0  0
   -7.4685    1.8387   -8.7149 O   0  0  0  0  0  0  0  0  0  0  0  0
   -8.0938    3.9682   -7.4565 O   0  0  0  0  0  0  0  0  0  0  0  0
   -8.1727    3.8900  -10.0581 C   0  0  0  0  0  0  0  0  0  0  0  0
   -8.3348    3.1778  -11.2332 C   0  0  0  0  0  0  0  0  0  0  0  0
   -7.9233    3.7623  -12.4141 C   0  0  0  0  0  0  0  0  0  0  0  0
   -7.3622    5.0378  -12.3953 C   0  0  0  0  0  0  0  0  0  0  0  0
   -6.7378    5.5183  -13.5046 N   0  0  0  0  0  0  0  0  0  0  0  0
   -6.5164    6.9255  -13.7627 C   0  0  0  0  0  0  0  0  0  0  0  0
   -5.6145    6.9327  -15.0119 C   0  0  0  0  0  0  0  0  0  0  0  0
   -5.6841    5.5112  -15.5644 C   0  0  2  0  0  0  0  0  0  0  0  0
   -6.8440    5.2516  -16.5160 C   0  0  0  0  0  0  0  0  0  0  0  0
   -8.0762    5.1271  -15.9677 N   0  0  0  0  0  0  0  0  0  0  0  0
   -9.0430    4.6119  -16.7296 C   0  0  0  0  0  0  0  0  0  0  0  0
   -8.9085    4.2402  -17.9977 N   0  0  0  0  0  0  0  0  0  0  0  0
   -7.7026    4.4381  -18.5430 C   0  0  0  0  0  0  0  0  0  0  0  0
   -7.4896    4.0228  -19.8387 C   0  0  0  0  0  0  0  0  0  0  0  0
   -6.2545    4.1760  -20.4854 C   0  0  0  0  0  0  0  0  0  0  0  0
   -5.2048    4.7980  -19.8414 C   0  0  0  0  0  0  0  0  0  0  0  0
   -5.3805    5.2049  -18.5307 C   0  0  0  0  0  0  0  0  0  0  0  0
   -6.6129    4.9918  -17.8628 C   0  0  0  0  0  0  0  0  0  0  0  0
   -5.8642    4.6781  -14.3004 C   0  0  0  0  0  0  0  0  0  0  0  0
   -7.3522    5.7884  -11.2727 N   0  0  0  0  0  0  0  0  0  0  0  0
   -7.7234    5.1904  -10.1151 C   0  0  0  0  0  0  0  0  0  0  0  0
  1  2  1  0
  2  3  2  0
  2  4  2  0
  2  5  1  0
  5  6  2  0
  6  7  1  0
  7  8  2  0
  8  9  1  0
  9 10  1  0
 10 11  1  0
 11 12  1  0
 12 13  1  6
 13 14  2  0
 14 15  1  0
 15 16  2  0
 16 17  1  0
 17 18  2  0
 18 19  1  0
 19 20  2  0
 20 21  1  0
 21 22  2  0
 12 23  1  0
  8 24  1  0
 24 25  2  0
 25  5  1  0
 23  9  1  0
 22 13  1  0
 22 17  1  0
M  END
>  <inchikey>  (209) 
AEIRBPSFAHABFM-UHFFFAOYSA-N

>  <alias>  (209) 
NS(=O)(=O)c1ccc(N2CC[C@H](c3ncnc4ccccc34)C2)nc1

>  <tags>  (209) 
{'openbind_xx01zvns2b_c1_knitwork_pure', 'fragmenstein_placed'}

>  <HIPPO Pose ID>  (209) 
40731

>  <ref_pdb>  (209) 
41

>  <smiles>  (209) 
C113656-P51

>  <fragmenstein_runtime>  (209) 
2.221566

>  <fragmenstein_outcome>  (209) 
acceptable

>  <fragmenstein_mode>  (209) 
expansion

>  <fragmenstein_error>  (209) 


>  <HIPPO Compound ID>  (209) 
4737

>  <Energy>  (209) 
-56.739284

>  <scratch_subdir>  (209) 
/opt/xchem-fragalysis-2/maxwin/BulkDock/SCRATCH/511031/C113656-P51

$$$$
CCc1ccc(N2CC[C@H](c3ncnc4ccccc34)C2)nc1
     RDKit          3D

 23 26  0  0  0  0  0  0  0  0999 V2000
   -9.3606    3.2538   -7.5744 C   0  0  0  0  0  0  0  0  0  0  0  0
   -7.9941    3.3239   -8.2173 C   0  0  0  0  0  0  0  0  0  0  0  0
   -7.9643    3.9670   -9.5746 C   0  0  0  0  0  0  0  0  0  0  0  0
   -8.2644    3.2346  -10.7142 C   0  0  0  0  0  0  0  0  0  0  0  0
   -7.9311    3.7532  -11.9565 C   0  0  0  0  0  0  0  0  0  0  0  0
   -7.3216    5.0045  -12.0428 C   0  0  0  0  0  0  0  0  0  0  0  0
   -6.7654    5.4189  -13.2178 N   0  0  0  0  0  0  0  0  0  0  0  0
   -6.4584    6.8030  -13.5179 C   0  0  0  0  0  0  0  0  0  0  0  0
   -5.5851    6.7201  -14.7880 C   0  0  0  0  0  0  0  0  0  0  0  0
   -5.7273    5.2788  -15.2743 C   0  0  2  0  0  0  0  0  0  0  0  0
   -6.9294    5.0323  -16.1731 C   0  0  0  0  0  0  0  0  0  0  0  0
   -8.1052    4.7771  -15.5644 N   0  0  0  0  0  0  0  0  0  0  0  0
   -9.0831    4.2503  -16.2975 C   0  0  0  0  0  0  0  0  0  0  0  0
   -9.0503    4.0288  -17.6014 N   0  0  0  0  0  0  0  0  0  0  0  0
   -7.9049    4.3391  -18.1938 C   0  0  0  0  0  0  0  0  0  0  0  0
   -7.7855    4.0064  -19.5097 C   0  0  0  0  0  0  0  0  0  0  0  0
   -6.5749    4.1773  -20.1669 C   0  0  0  0  0  0  0  0  0  0  0  0
   -5.5035    4.8205  -19.5707 C   0  0  0  0  0  0  0  0  0  0  0  0
   -5.6089    5.1892  -18.2499 C   0  0  0  0  0  0  0  0  0  0  0  0
   -6.7882    4.8890  -17.5420 C   0  0  0  0  0  0  0  0  0  0  0  0
   -5.9045    4.5188  -13.9627 C   0  0  0  0  0  0  0  0  0  0  0  0
   -7.2021    5.8007  -10.9655 N   0  0  0  0  0  0  0  0  0  0  0  0
   -7.5036    5.2626   -9.7625 C   0  0  0  0  0  0  0  0  0  0  0  0
  1  2  1  0
  2  3  1  0
  3  4  2  0
  4  5  1  0
  5  6  2  0
  6  7  1  0
  7  8  1  0
  8  9  1  0
  9 10  1  0
 10 11  1  6
 11 12  2  0
 12 13  1  0
 13 14  2  0
 14 15  1  0
 15 16  2  0
 16 17  1  0
 17 18  2  0
 18 19  1  0
 19 20  2  0
 10 21  1  0
  6 22  1  0
 22 23  2  0
 23  3  1  0
 21  7  1  0
 20 11  1  0
 20 15  1  0
M  END
>  <inchikey>  (210) 
ICQZTEPSBIVKAE-UHFFFAOYSA-N

>  <alias>  (210) 
CCc1ccc(N2CC[C@H](c3ncnc4ccccc34)C2)nc1

>  <tags>  (210) 
{'openbind_xx01zvns2b_c1_knitwork_pure', 'fragmenstein_placed'}

>  <HIPPO Pose ID>  (210) 
40736

>  <ref_pdb>  (210) 
41

>  <smiles>  (210) 
C113659-P95

>  <fragmenstein_runtime>  (210) 
3.308175

>  <fragmenstein_outcome>  (210) 
acceptable

>  <fragmenstein_mode>  (210) 
expansion

>  <fragmenstein_error>  (210) 


>  <HIPPO Compound ID>  (210) 
5045

>  <Energy>  (210) 
32.80463

>  <scratch_subdir>  (210) 
/opt/xchem-fragalysis-2/maxwin/BulkDock/SCRATCH/511031/C113659-P95

$$$$
[H]N=[S@](C)(=O)c1ccc(N2CC[C@H](c3ncnc4ccccc34)C2)nc1
     RDKit          3D

 26 29  0  0  0  0  0  0  0  0999 V2000
   -7.6642    2.3354   -8.2152 C   0  0  0  0  0  0  0  0  0  0  0  0
   -8.9972    3.3456   -8.7183 S   0  0  1  0  0  0  0  0  0  0  0  0
  -10.1403    2.4004   -9.0775 N   0  0  0  0  0  0  0  0  0  0  0  0
   -9.1035    4.4381   -7.7685 O   0  0  0  0  0  0  0  0  0  0  0  0
   -8.4024    4.0243  -10.2226 C   0  0  0  0  0  0  0  0  0  0  0  0
   -8.1618    3.2015  -11.3072 C   0  0  0  0  0  0  0  0  0  0  0  0
   -7.4210    3.7075  -12.3629 C   0  0  0  0  0  0  0  0  0  0  0  0
   -6.9528    5.0206  -12.3175 C   0  0  0  0  0  0  0  0  0  0  0  0
   -6.0044    5.5112  -13.1795 N   0  0  0  0  0  0  0  0  0  0  0  0
   -6.1807    6.8975  -13.6095 C   0  0  0  0  0  0  0  0  0  0  0  0
   -5.3862    6.9783  -14.9158 C   0  0  0  0  0  0  0  0  0  0  0  0
   -5.4513    5.5596  -15.4596 C   0  0  2  0  0  0  0  0  0  0  0  0
   -6.7359    5.2261  -16.2010 C   0  0  0  0  0  0  0  0  0  0  0  0
   -7.8359    4.9895  -15.4578 N   0  0  0  0  0  0  0  0  0  0  0  0
   -8.8735    4.4068  -16.0647 C   0  0  0  0  0  0  0  0  0  0  0  0
   -8.9557    4.0950  -17.3526 N   0  0  0  0  0  0  0  0  0  0  0  0
   -7.8770    4.3770  -18.0791 C   0  0  0  0  0  0  0  0  0  0  0  0
   -7.8486    3.9489  -19.3793 C   0  0  0  0  0  0  0  0  0  0  0  0
   -6.6913    4.0849  -20.1395 C   0  0  0  0  0  0  0  0  0  0  0  0
   -5.6053    4.8075  -19.6782 C   0  0  0  0  0  0  0  0  0  0  0  0
   -5.6274    5.2876  -18.3932 C   0  0  0  0  0  0  0  0  0  0  0  0
   -6.7266    4.9983  -17.5668 C   0  0  0  0  0  0  0  0  0  0  0  0
   -5.3316    4.7191  -14.1927 C   0  0  0  0  0  0  0  0  0  0  0  0
   -7.3333    5.8567  -11.3235 N   0  0  0  0  0  0  0  0  0  0  0  0
   -8.0255    5.3460  -10.2839 C   0  0  0  0  0  0  0  0  0  0  0  0
  -10.8229    2.8959   -9.6511 H   0  0  0  0  0  0  0  0  0  0  0  0
  2  1  1  1
  2  3  2  0
  2  4  2  0
  2  5  1  0
  5  6  2  0
  6  7  1  0
  7  8  2  0
  8  9  1  0
  9 10  1  0
 10 11  1  0
 11 12  1  0
 12 13  1  1
 13 14  2  0
 14 15  1  0
 15 16  2  0
 16 17  1  0
 17 18  2  0
 18 19  1  0
 19 20  2  0
 20 21  1  0
 21 22  2  0
 12 23  1  0
  8 24  1  0
 24 25  2  0
 25  5  1  0
 23  9  1  0
 22 13  1  0
 22 17  1  0
  3 26  1  0
M  END
>  <inchikey>  (211) 
MCWFSMLQLCJZOV-UHFFFAOYSA-N

>  <alias>  (211) 
[H]N=[S@](C)(=O)c1ccc(N2CC[C@H](c3ncnc4ccccc34)C2)nc1

>  <tags>  (211) 
{'openbind_xx01zvns2b_c1_knitwork_pure', 'fragmenstein_placed'}

>  <HIPPO Pose ID>  (211) 
40738

>  <ref_pdb>  (211) 
41

>  <smiles>  (211) 
C113661-P95

>  <fragmenstein_runtime>  (211) 
4.555451

>  <fragmenstein_outcome>  (211) 
acceptable

>  <fragmenstein_mode>  (211) 
expansion

>  <fragmenstein_error>  (211) 


>  <HIPPO Compound ID>  (211) 
13857

>  <Energy>  (211) 
18.054079

>  <scratch_subdir>  (211) 
/opt/xchem-fragalysis-2/maxwin/BulkDock/SCRATCH/511031/C113661-P95

$$$$
CC(=O)c1ccc(N2CC[C@@H](c3ncnc4ccccc34)C2)nc1
     RDKit          3D

 24 27  0  0  0  0  0  0  0  0999 V2000
   -9.0879    2.6484   -7.9821 C   0  0  0  0  0  0  0  0  0  0  0  0
   -8.7768    4.0424   -8.4644 C   0  0  0  0  0  0  0  0  0  0  0  0
   -8.8961    5.0174   -7.7219 O   0  0  0  0  0  0  0  0  0  0  0  0
   -8.3083    4.2297   -9.8610 C   0  0  0  0  0  0  0  0  0  0  0  0
   -8.0945    3.1724  -10.7308 C   0  0  0  0  0  0  0  0  0  0  0  0
   -7.4928    3.4113  -11.9643 C   0  0  0  0  0  0  0  0  0  0  0  0
   -7.1220    4.7039  -12.3218 C   0  0  0  0  0  0  0  0  0  0  0  0
   -6.3520    4.9519  -13.4182 N   0  0  0  0  0  0  0  0  0  0  0  0
   -5.6352    3.9593  -14.1895 C   0  0  0  0  0  0  0  0  0  0  0  0
   -4.9075    4.8084  -15.2352 C   0  0  0  0  0  0  0  0  0  0  0  0
   -5.9257    5.9251  -15.5191 C   0  0  1  0  0  0  0  0  0  0  0  0
   -7.0291    5.4239  -16.4426 C   0  0  0  0  0  0  0  0  0  0  0  0
   -8.2292    5.1681  -15.8783 N   0  0  0  0  0  0  0  0  0  0  0  0
   -9.1336    4.5329  -16.6281 C   0  0  0  0  0  0  0  0  0  0  0  0
   -8.9750    4.1657  -17.8972 N   0  0  0  0  0  0  0  0  0  0  0  0
   -7.7923    4.4533  -18.4497 C   0  0  0  0  0  0  0  0  0  0  0  0
   -7.5438    4.0233  -19.7363 C   0  0  0  0  0  0  0  0  0  0  0  0
   -6.3092    4.2198  -20.3707 C   0  0  0  0  0  0  0  0  0  0  0  0
   -5.3063    4.9199  -19.7307 C   0  0  0  0  0  0  0  0  0  0  0  0
   -5.5313    5.3747  -18.4409 C   0  0  0  0  0  0  0  0  0  0  0  0
   -6.7581    5.1136  -17.7780 C   0  0  0  0  0  0  0  0  0  0  0  0
   -6.4128    6.2406  -14.0917 C   0  0  0  0  0  0  0  0  0  0  0  0
   -7.4350    5.7541  -11.5303 N   0  0  0  0  0  0  0  0  0  0  0  0
   -8.0010    5.4986  -10.3226 C   0  0  0  0  0  0  0  0  0  0  0  0
  1  2  1  0
  2  3  2  0
  2  4  1  0
  4  5  2  0
  5  6  1  0
  6  7  2  0
  7  8  1  0
  8  9  1  0
  9 10  1  0
 10 11  1  0
 11 12  1  6
 12 13  2  0
 13 14  1  0
 14 15  2  0
 15 16  1  0
 16 17  2  0
 17 18  1  0
 18 19  2  0
 19 20  1  0
 20 21  2  0
 11 22  1  0
  7 23  1  0
 23 24  2  0
 24  4  1  0
 22  8  1  0
 21 12  1  0
 21 16  1  0
M  END
>  <inchikey>  (212) 
RVDHNQDXLKJGMB-UHFFFAOYSA-N

>  <alias>  (212) 
CC(=O)c1ccc(N2CC[C@@H](c3ncnc4ccccc34)C2)nc1

>  <tags>  (212) 
{'openbind_xx01zvns2b_c1_knitwork_pure', 'fragmenstein_placed'}

>  <HIPPO Pose ID>  (212) 
40739

>  <ref_pdb>  (212) 
41

>  <smiles>  (212) 
C113662-P51

>  <fragmenstein_runtime>  (212) 
2.809717

>  <fragmenstein_outcome>  (212) 
acceptable

>  <fragmenstein_mode>  (212) 
expansion

>  <fragmenstein_error>  (212) 


>  <HIPPO Compound ID>  (212) 
10062

>  <Energy>  (212) 
34.87065

>  <scratch_subdir>  (212) 
/opt/xchem-fragalysis-2/maxwin/BulkDock/SCRATCH/511031/C113662-P51

$$$$
c1ccc2c([C@H]3CCN(c4ccc(-c5cc[nH]n5)cn4)C3)ncnc2c1
     RDKit          3D

 26 30  0  0  0  0  0  0  0  0999 V2000
   -6.2677    4.2041  -20.4480 C   0  0  0  0  0  0  0  0  0  0  0  0
   -5.2194    4.7484  -19.7340 C   0  0  0  0  0  0  0  0  0  0  0  0
   -5.4193    5.0622  -18.4008 C   0  0  0  0  0  0  0  0  0  0  0  0
   -6.6782    4.8453  -17.7852 C   0  0  0  0  0  0  0  0  0  0  0  0
   -6.9420    5.0056  -16.4289 C   0  0  0  0  0  0  0  0  0  0  0  0
   -5.8065    5.1390  -15.4331 C   0  0  1  0  0  0  0  0  0  0  0  0
   -5.6180    6.5559  -14.9081 C   0  0  0  0  0  0  0  0  0  0  0  0
   -6.6011    6.6555  -13.7338 C   0  0  0  0  0  0  0  0  0  0  0  0
   -6.8092    5.2773  -13.3264 N   0  0  0  0  0  0  0  0  0  0  0  0
   -7.4339    4.9490  -12.1609 C   0  0  0  0  0  0  0  0  0  0  0  0
   -7.8436    3.6478  -11.8793 C   0  0  0  0  0  0  0  0  0  0  0  0
   -8.3215    3.3237  -10.6094 C   0  0  0  0  0  0  0  0  0  0  0  0
   -8.3851    4.3001   -9.6225 C   0  0  0  0  0  0  0  0  0  0  0  0
   -8.7051    3.9666   -8.2334 C   0  0  0  0  0  0  0  0  0  0  0  0
   -8.5278    4.7676   -7.0673 C   0  0  0  0  0  0  0  0  0  0  0  0
   -8.8676    3.9627   -6.0068 C   0  0  0  0  0  0  0  0  0  0  0  0
   -9.1901    2.7549   -6.5508 N   0  0  0  0  0  0  0  0  0  0  0  0
   -9.2087    2.7693   -7.8912 N   0  0  0  0  0  0  0  0  0  0  0  0
   -8.0534    5.5873  -10.0183 C   0  0  0  0  0  0  0  0  0  0  0  0
   -7.6009    5.9312  -11.2512 N   0  0  0  0  0  0  0  0  0  0  0  0
   -6.0996    4.3344  -14.1650 C   0  0  0  0  0  0  0  0  0  0  0  0
   -8.1918    4.9088  -15.9239 N   0  0  0  0  0  0  0  0  0  0  0  0
   -9.1538    4.4992  -16.7511 C   0  0  0  0  0  0  0  0  0  0  0  0
   -8.9942    4.2072  -18.0382 N   0  0  0  0  0  0  0  0  0  0  0  0
   -7.7646    4.3857  -18.5325 C   0  0  0  0  0  0  0  0  0  0  0  0
   -7.5239    4.0434  -19.8440 C   0  0  0  0  0  0  0  0  0  0  0  0
  1  2  2  0
  2  3  1  0
  3  4  2  0
  4  5  1  0
  6  5  1  6
  6  7  1  0
  7  8  1  0
  8  9  1  0
  9 10  1  0
 10 11  2  0
 11 12  1  0
 12 13  2  0
 13 14  1  0
 14 15  1  0
 15 16  2  0
 16 17  1  0
 17 18  1  0
 13 19  1  0
 19 20  2  0
  9 21  1  0
  5 22  2  0
 22 23  1  0
 23 24  2  0
 24 25  1  0
 25 26  2  0
 26  1  1  0
 25  4  1  0
 21  6  1  0
 20 10  1  0
 18 14  2  0
M  END
>  <inchikey>  (213) 
SFFGTUWFWSMHCZ-UHFFFAOYSA-N

>  <alias>  (213) 
c1ccc2c([C@H]3CCN(c4ccc(-c5cc[nH]n5)cn4)C3)ncnc2c1

>  <tags>  (213) 
{'openbind_xx01zvns2b_c1_knitwork_pure', 'fragmenstein_placed'}

>  <HIPPO Pose ID>  (213) 
40740

>  <ref_pdb>  (213) 
41

>  <smiles>  (213) 
C113663-P51

>  <fragmenstein_runtime>  (213) 
3.60429

>  <fragmenstein_outcome>  (213) 
acceptable

>  <fragmenstein_mode>  (213) 
expansion

>  <fragmenstein_error>  (213) 


>  <HIPPO Compound ID>  (213) 
4958

>  <Energy>  (213) 
37.746238

>  <scratch_subdir>  (213) 
/opt/xchem-fragalysis-2/maxwin/BulkDock/SCRATCH/511031/C113663-P51

$$$$
Brc1ccc(N2CC[C@@H](c3ncnc4ccccc34)C2)nc1
     RDKit          3D

 22 25  0  0  0  0  0  0  0  0999 V2000
   -8.6509    4.0381   -7.9865 Br  0  0  0  0  0  0  0  0  0  0  0  0
   -8.2095    4.2936   -9.8004 C   0  0  0  0  0  0  0  0  0  0  0  0
   -8.0342    3.2105  -10.6385 C   0  0  0  0  0  0  0  0  0  0  0  0
   -7.5048    3.4220  -11.9082 C   0  0  0  0  0  0  0  0  0  0  0  0
   -7.1652    4.7105  -12.3161 C   0  0  0  0  0  0  0  0  0  0  0  0
   -6.4520    4.9345  -13.4528 N   0  0  0  0  0  0  0  0  0  0  0  0
   -5.6991    3.9418  -14.1888 C   0  0  0  0  0  0  0  0  0  0  0  0
   -4.9490    4.7847  -15.2255 C   0  0  0  0  0  0  0  0  0  0  0  0
   -5.9504    5.9115  -15.5281 C   0  0  1  0  0  0  0  0  0  0  0  0
   -7.0460    5.4193  -16.4650 C   0  0  0  0  0  0  0  0  0  0  0  0
   -8.2553    5.1728  -15.9156 N   0  0  0  0  0  0  0  0  0  0  0  0
   -9.1527    4.5380  -16.6735 C   0  0  0  0  0  0  0  0  0  0  0  0
   -8.9794    4.1656  -17.9386 N   0  0  0  0  0  0  0  0  0  0  0  0
   -7.7897    4.4494  -18.4778 C   0  0  0  0  0  0  0  0  0  0  0  0
   -7.5289    4.0189  -19.7614 C   0  0  0  0  0  0  0  0  0  0  0  0
   -6.2896    4.2167  -20.3860 C   0  0  0  0  0  0  0  0  0  0  0  0
   -5.2908    4.9129  -19.7350 C   0  0  0  0  0  0  0  0  0  0  0  0
   -5.5260    5.3643  -18.4459 C   0  0  0  0  0  0  0  0  0  0  0  0
   -6.7607    5.1069  -17.7962 C   0  0  0  0  0  0  0  0  0  0  0  0
   -6.4562    6.2309  -14.1098 C   0  0  0  0  0  0  0  0  0  0  0  0
   -7.4534    5.7828  -11.5430 N   0  0  0  0  0  0  0  0  0  0  0  0
   -7.9513    5.5530  -10.3053 C   0  0  0  0  0  0  0  0  0  0  0  0
  1  2  1  0
  2  3  2  0
  3  4  1  0
  4  5  2  0
  5  6  1  0
  6  7  1  0
  7  8  1  0
  8  9  1  0
  9 10  1  6
 10 11  2  0
 11 12  1  0
 12 13  2  0
 13 14  1  0
 14 15  2  0
 15 16  1  0
 16 17  2  0
 17 18  1  0
 18 19  2  0
  9 20  1  0
  5 21  1  0
 21 22  2  0
 22  2  1  0
 20  6  1  0
 19 10  1  0
 19 14  1  0
M  END
>  <inchikey>  (214) 
GEUBGIORIDOWIW-UHFFFAOYSA-N

>  <alias>  (214) 
Brc1ccc(N2CC[C@@H](c3ncnc4ccccc34)C2)nc1

>  <tags>  (214) 
{'openbind_xx01zvns2b_c1_knitwork_pure', 'fragmenstein_placed'}

>  <HIPPO Pose ID>  (214) 
40743

>  <ref_pdb>  (214) 
41

>  <smiles>  (214) 
C113667-P51

>  <fragmenstein_runtime>  (214) 
1.716174

>  <fragmenstein_outcome>  (214) 
acceptable

>  <fragmenstein_mode>  (214) 
expansion

>  <fragmenstein_error>  (214) 


>  <HIPPO Compound ID>  (214) 
56830

>  <Energy>  (214) 
25.73267

>  <scratch_subdir>  (214) 
/opt/xchem-fragalysis-2/maxwin/BulkDock/SCRATCH/511031/C113667-P51

$$$$
CC(F)(F)c1ccc(N2CC[C@H](c3ncnc4ccccc34)C2)nc1
     RDKit          3D

 25 28  0  0  0  0  0  0  0  0999 V2000
   -8.0488    2.5269   -8.1022 C   0  0  0  0  0  0  0  0  0  0  0  0
   -9.0913    3.3614   -8.8068 C   0  0  0  0  0  0  0  0  0  0  0  0
   -9.4713    4.3304   -7.9176 F   0  0  0  0  0  0  0  0  0  0  0  0
  -10.1862    2.5781   -8.9964 F   0  0  0  0  0  0  0  0  0  0  0  0
   -8.5346    3.9370  -10.0760 C   0  0  0  0  0  0  0  0  0  0  0  0
   -8.3752    3.1655  -11.2178 C   0  0  0  0  0  0  0  0  0  0  0  0
   -7.6281    3.6595  -12.2808 C   0  0  0  0  0  0  0  0  0  0  0  0
   -7.0710    4.9332  -12.2060 C   0  0  0  0  0  0  0  0  0  0  0  0
   -6.1357    5.4039  -13.0925 N   0  0  0  0  0  0  0  0  0  0  0  0
   -6.2847    6.7892  -13.5261 C   0  0  0  0  0  0  0  0  0  0  0  0
   -5.4502    6.8605  -14.8096 C   0  0  0  0  0  0  0  0  0  0  0  0
   -5.5208    5.4444  -15.3619 C   0  0  2  0  0  0  0  0  0  0  0  0
   -6.7806    5.1457  -16.1552 C   0  0  0  0  0  0  0  0  0  0  0  0
   -7.9037    4.9075  -15.4499 N   0  0  0  0  0  0  0  0  0  0  0  0
   -8.9282    4.3513  -16.0998 C   0  0  0  0  0  0  0  0  0  0  0  0
   -8.9797    4.0750  -17.3972 N   0  0  0  0  0  0  0  0  0  0  0  0
   -7.8796    4.3637  -18.0862 C   0  0  0  0  0  0  0  0  0  0  0  0
   -7.8294    3.9766  -19.3981 C   0  0  0  0  0  0  0  0  0  0  0  0
   -6.6575    4.1279  -20.1320 C   0  0  0  0  0  0  0  0  0  0  0  0
   -5.5702    4.8175  -19.6253 C   0  0  0  0  0  0  0  0  0  0  0  0
   -5.6103    5.2483  -18.3214 C   0  0  0  0  0  0  0  0  0  0  0  0
   -6.7340    4.9532  -17.5274 C   0  0  0  0  0  0  0  0  0  0  0  0
   -5.4706    4.5923  -14.0948 C   0  0  0  0  0  0  0  0  0  0  0  0
   -7.3618    5.7464  -11.1677 N   0  0  0  0  0  0  0  0  0  0  0  0
   -8.0567    5.2342  -10.1276 C   0  0  0  0  0  0  0  0  0  0  0  0
  1  2  1  0
  2  3  1  0
  2  4  1  0
  2  5  1  0
  5  6  2  0
  6  7  1  0
  7  8  2  0
  8  9  1  0
  9 10  1  0
 10 11  1  0
 11 12  1  0
 12 13  1  1
 13 14  2  0
 14 15  1  0
 15 16  2  0
 16 17  1  0
 17 18  2  0
 18 19  1  0
 19 20  2  0
 20 21  1  0
 21 22  2  0
 12 23  1  0
  8 24  1  0
 24 25  2  0
 25  5  1  0
 23  9  1  0
 22 13  1  0
 22 17  1  0
M  END
>  <inchikey>  (215) 
GQDRHLMPTNGJGA-UHFFFAOYSA-N

>  <alias>  (215) 
CC(F)(F)c1ccc(N2CC[C@H](c3ncnc4ccccc34)C2)nc1

>  <tags>  (215) 
{'openbind_xx01zvns2b_c1_knitwork_pure', 'fragmenstein_placed'}

>  <HIPPO Pose ID>  (215) 
40744

>  <ref_pdb>  (215) 
41

>  <smiles>  (215) 
C113668-P95

>  <fragmenstein_runtime>  (215) 
3.414968

>  <fragmenstein_outcome>  (215) 
acceptable

>  <fragmenstein_mode>  (215) 
expansion

>  <fragmenstein_error>  (215) 


>  <HIPPO Compound ID>  (215) 
56123

>  <Energy>  (215) 
36.609964

>  <scratch_subdir>  (215) 
/opt/xchem-fragalysis-2/maxwin/BulkDock/SCRATCH/511031/C113668-P95

$$$$
Brc1ccc(Sc2ncnc3ccccc23)nc1
     RDKit          3D

 18 20  0  0  0  0  0  0  0  0999 V2000
   -8.5610    3.8206   -8.8981 Br  0  0  0  0  0  0  0  0  0  0  0  0
   -8.0972    4.2220  -10.6783 C   0  0  0  0  0  0  0  0  0  0  0  0
   -8.1371    3.2436  -11.6582 C   0  0  0  0  0  0  0  0  0  0  0  0
   -7.6529    3.5350  -12.9352 C   0  0  0  0  0  0  0  0  0  0  0  0
   -7.1571    4.8084  -13.1977 C   0  0  0  0  0  0  0  0  0  0  0  0
   -6.2512    5.1748  -14.6868 S   0  0  0  0  0  0  0  0  0  0  0  0
   -7.3819    4.8374  -16.0303 C   0  0  0  0  0  0  0  0  0  0  0  0
   -8.6658    4.6438  -15.6866 N   0  0  0  0  0  0  0  0  0  0  0  0
   -9.4825    4.2875  -16.6768 C   0  0  0  0  0  0  0  0  0  0  0  0
   -9.1619    4.1212  -17.9550 N   0  0  0  0  0  0  0  0  0  0  0  0
   -7.8970    4.3577  -18.2801 C   0  0  0  0  0  0  0  0  0  0  0  0
   -7.5355    4.1540  -19.5954 C   0  0  0  0  0  0  0  0  0  0  0  0
   -6.2360    4.3812  -20.0554 C   0  0  0  0  0  0  0  0  0  0  0  0
   -5.2692    4.8275  -19.1727 C   0  0  0  0  0  0  0  0  0  0  0  0
   -5.6038    5.0065  -17.8322 C   0  0  0  0  0  0  0  0  0  0  0  0
   -6.9232    4.7561  -17.3605 C   0  0  0  0  0  0  0  0  0  0  0  0
   -7.1593    5.7921  -12.2613 N   0  0  0  0  0  0  0  0  0  0  0  0
   -7.6311    5.4763  -11.0292 C   0  0  0  0  0  0  0  0  0  0  0  0
  1  2  1  0
  2  3  2  0
  3  4  1  0
  4  5  2  0
  5  6  1  0
  6  7  1  0
  7  8  2  0
  8  9  1  0
  9 10  2  0
 10 11  1  0
 11 12  2  0
 12 13  1  0
 13 14  2  0
 14 15  1  0
 15 16  2  0
  5 17  1  0
 17 18  2  0
 18  2  1  0
 16  7  1  0
 16 11  1  0
M  END
>  <inchikey>  (216) 
BJMZMZLIAXGYMA-UHFFFAOYSA-N

>  <alias>  (216) 
Brc1ccc(Sc2ncnc3ccccc23)nc1

>  <tags>  (216) 
{'openbind_xx01zvns2b_c1_knitwork_pure', 'fragmenstein_placed'}

>  <HIPPO Pose ID>  (216) 
40746

>  <ref_pdb>  (216) 
41

>  <smiles>  (216) 
C113669-P51

>  <fragmenstein_runtime>  (216) 
1.87133

>  <fragmenstein_outcome>  (216) 
acceptable

>  <fragmenstein_mode>  (216) 
expansion

>  <fragmenstein_error>  (216) 


>  <HIPPO Compound ID>  (216) 
7584

>  <Energy>  (216) 
22.175947

>  <scratch_subdir>  (216) 
/opt/xchem-fragalysis-2/maxwin/BulkDock/SCRATCH/511031/C113669-P51

$$$$
Nc1cccnc1Sc1ncnc2ccccc12
     RDKit          3D

 18 20  0  0  0  0  0  0  0  0999 V2000
   -7.3854    2.3909  -13.5986 N   0  0  0  0  0  0  0  0  0  0  0  0
   -7.5126    3.5343  -12.7721 C   0  0  0  0  0  0  0  0  0  0  0  0
   -8.1804    3.3881  -11.5547 C   0  0  0  0  0  0  0  0  0  0  0  0
   -8.4009    4.4948  -10.7466 C   0  0  0  0  0  0  0  0  0  0  0  0
   -7.9785    5.7299  -11.2027 C   0  0  0  0  0  0  0  0  0  0  0  0
   -7.3528    5.9291  -12.3838 N   0  0  0  0  0  0  0  0  0  0  0  0
   -7.1394    4.8351  -13.1635 C   0  0  0  0  0  0  0  0  0  0  0  0
   -6.1887    5.1414  -14.6499 S   0  0  0  0  0  0  0  0  0  0  0  0
   -7.3386    4.8409  -15.9921 C   0  0  0  0  0  0  0  0  0  0  0  0
   -8.6167    4.6294  -15.6365 N   0  0  0  0  0  0  0  0  0  0  0  0
   -9.4444    4.2841  -16.6208 C   0  0  0  0  0  0  0  0  0  0  0  0
   -9.1381    4.1272  -17.9032 N   0  0  0  0  0  0  0  0  0  0  0  0
   -7.8777    4.3712  -18.2411 C   0  0  0  0  0  0  0  0  0  0  0  0
   -7.5299    4.1726  -19.5612 C   0  0  0  0  0  0  0  0  0  0  0  0
   -6.2345    4.4006  -20.0315 C   0  0  0  0  0  0  0  0  0  0  0  0
   -5.2597    4.8448  -19.1563 C   0  0  0  0  0  0  0  0  0  0  0  0
   -5.5813    5.0215  -17.8121 C   0  0  0  0  0  0  0  0  0  0  0  0
   -6.8952    4.7686  -17.3285 C   0  0  0  0  0  0  0  0  0  0  0  0
  1  2  1  0
  2  3  2  0
  3  4  1  0
  4  5  2  0
  5  6  1  0
  6  7  2  0
  7  8  1  0
  8  9  1  0
  9 10  2  0
 10 11  1  0
 11 12  2  0
 12 13  1  0
 13 14  2  0
 14 15  1  0
 15 16  2  0
 16 17  1  0
 17 18  2  0
  7  2  1  0
 18  9  1  0
 18 13  1  0
M  END
>  <inchikey>  (217) 
RSUOJVKSQJGGBO-UHFFFAOYSA-N

>  <alias>  (217) 
Nc1cccnc1Sc1ncnc2ccccc12

>  <tags>  (217) 
{'openbind_xx01zvns2b_c1_knitwork_pure', 'fragmenstein_placed'}

>  <HIPPO Pose ID>  (217) 
40748

>  <ref_pdb>  (217) 
41

>  <smiles>  (217) 
C113671-P51

>  <fragmenstein_runtime>  (217) 
1.493207

>  <fragmenstein_outcome>  (217) 
acceptable

>  <fragmenstein_mode>  (217) 
expansion

>  <fragmenstein_error>  (217) 


>  <HIPPO Compound ID>  (217) 
7519

>  <Energy>  (217) 
47.749362

>  <scratch_subdir>  (217) 
/opt/xchem-fragalysis-2/maxwin/BulkDock/SCRATCH/511031/C113671-P51

$$$$
Brc1cccnc1Sc1ncnc2ccccc12
     RDKit          3D

 18 20  0  0  0  0  0  0  0  0999 V2000
   -6.3803    2.1587  -13.2634 Br  0  0  0  0  0  0  0  0  0  0  0  0
   -7.2497    3.6815  -12.5671 C   0  0  0  0  0  0  0  0  0  0  0  0
   -7.9514    3.5090  -11.3723 C   0  0  0  0  0  0  0  0  0  0  0  0
   -8.4663    4.6182  -10.7213 C   0  0  0  0  0  0  0  0  0  0  0  0
   -8.2825    5.8585  -11.3043 C   0  0  0  0  0  0  0  0  0  0  0  0
   -7.6348    6.0589  -12.4739 N   0  0  0  0  0  0  0  0  0  0  0  0
   -7.1304    4.9654  -13.1111 C   0  0  0  0  0  0  0  0  0  0  0  0
   -6.1880    5.3462  -14.5879 S   0  0  0  0  0  0  0  0  0  0  0  0
   -7.3107    4.9035  -15.9163 C   0  0  0  0  0  0  0  0  0  0  0  0
   -8.5754    4.6558  -15.5404 N   0  0  0  0  0  0  0  0  0  0  0  0
   -9.4002    4.2556  -16.5054 C   0  0  0  0  0  0  0  0  0  0  0  0
   -9.1149    4.1061  -17.7948 N   0  0  0  0  0  0  0  0  0  0  0  0
   -7.8672    4.3826  -18.1544 C   0  0  0  0  0  0  0  0  0  0  0  0
   -7.5371    4.1913  -19.4814 C   0  0  0  0  0  0  0  0  0  0  0  0
   -6.2509    4.4355  -19.9683 C   0  0  0  0  0  0  0  0  0  0  0  0
   -5.2713    4.8975  -19.1072 C   0  0  0  0  0  0  0  0  0  0  0  0
   -5.5788    5.0825  -17.7601 C   0  0  0  0  0  0  0  0  0  0  0  0
   -6.8810    4.8116  -17.2570 C   0  0  0  0  0  0  0  0  0  0  0  0
  1  2  1  0
  2  3  2  0
  3  4  1  0
  4  5  2  0
  5  6  1  0
  6  7  2  0
  7  8  1  0
  8  9  1  0
  9 10  2  0
 10 11  1  0
 11 12  2  0
 12 13  1  0
 13 14  2  0
 14 15  1  0
 15 16  2  0
 16 17  1  0
 17 18  2  0
  7  2  1  0
 18  9  1  0
 18 13  1  0
M  END
>  <inchikey>  (218) 
UBCVANQFMVVBMH-UHFFFAOYSA-N

>  <alias>  (218) 
Brc1cccnc1Sc1ncnc2ccccc12

>  <tags>  (218) 
{'openbind_xx01zvns2b_c1_knitwork_pure', 'fragmenstein_placed'}

>  <HIPPO Pose ID>  (218) 
40750

>  <ref_pdb>  (218) 
41

>  <smiles>  (218) 
C113673-P51

>  <fragmenstein_runtime>  (218) 
1.755994

>  <fragmenstein_outcome>  (218) 
acceptable

>  <fragmenstein_mode>  (218) 
expansion

>  <fragmenstein_error>  (218) 


>  <HIPPO Compound ID>  (218) 
2694

>  <Energy>  (218) 
29.419932

>  <scratch_subdir>  (218) 
/opt/xchem-fragalysis-2/maxwin/BulkDock/SCRATCH/511031/C113673-P51

$$$$
CC(C)Nc1nc2cc(F)ccc2s1
     RDKit          3D

 14 15  0  0  0  0  0  0  0  0999 V2000
   -1.3666    4.6334  -19.5874 C   0  0  0  0  0  0  0  0  0  0  0  0
   -2.4918    5.4098  -18.9162 C   0  0  0  0  0  0  0  0  0  0  0  0
   -2.1626    6.8975  -18.8649 C   0  0  0  0  0  0  0  0  0  0  0  0
   -3.6962    5.2224  -19.6904 N   0  0  0  0  0  0  0  0  0  0  0  0
   -4.8846    5.0064  -19.1025 C   0  0  0  0  0  0  0  0  0  0  0  0
   -5.1615    5.1599  -17.8309 N   0  0  0  0  0  0  0  0  0  0  0  0
   -6.4986    4.8742  -17.6084 C   0  0  0  0  0  0  0  0  0  0  0  0
   -7.1568    4.9273  -16.3725 C   0  0  0  0  0  0  0  0  0  0  0  0
   -8.5195    4.6514  -16.3116 C   0  0  0  0  0  0  0  0  0  0  0  0
   -9.1379    4.7365  -15.1267 F   0  0  0  0  0  0  0  0  0  0  0  0
   -9.2507    4.3355  -17.4474 C   0  0  0  0  0  0  0  0  0  0  0  0
   -8.6150    4.2646  -18.6863 C   0  0  0  0  0  0  0  0  0  0  0  0
   -7.2346    4.5231  -18.7381 C   0  0  0  0  0  0  0  0  0  0  0  0
   -6.1718    4.4688  -20.0806 S   0  0  0  0  0  0  0  0  0  0  0  0
  1  2  1  0
  2  3  1  0
  2  4  1  0
  4  5  1  0
  5  6  2  0
  6  7  1  0
  7  8  2  0
  8  9  1  0
  9 10  1  0
  9 11  2  0
 11 12  1  0
 12 13  2  0
 13 14  1  0
 14  5  1  0
 13  7  1  0
M  END
>  <inchikey>  (219) 
DWQGFTJWSSCTBF-UHFFFAOYSA-N

>  <alias>  (219) 
CC(C)Nc1nc2cc(F)ccc2s1

>  <tags>  (219) 
{'openbind_xx01zvns2b_c1_knitwork_pure', 'fragmenstein_placed'}

>  <HIPPO Pose ID>  (219) 
40868

>  <ref_pdb>  (219) 
41

>  <smiles>  (219) 
C113796-P37

>  <fragmenstein_runtime>  (219) 
1.265977

>  <fragmenstein_outcome>  (219) 
acceptable

>  <fragmenstein_mode>  (219) 
expansion

>  <fragmenstein_error>  (219) 


>  <HIPPO Compound ID>  (219) 
10065

>  <Energy>  (219) 
-24.560262

>  <scratch_subdir>  (219) 
/opt/xchem-fragalysis-2/maxwin/BulkDock/SCRATCH/511031/C113796-P37

$$$$
CC(C)Nc1nc2c(C(F)(F)F)cccc2s1
     RDKit          3D

 17 18  0  0  0  0  0  0  0  0999 V2000
   -1.5175    4.7197  -19.3158 C   0  0  0  0  0  0  0  0  0  0  0  0
   -2.6179    5.3844  -18.4856 C   0  0  0  0  0  0  0  0  0  0  0  0
   -2.4292    6.8973  -18.4918 C   0  0  0  0  0  0  0  0  0  0  0  0
   -3.8737    5.0557  -19.1000 N   0  0  0  0  0  0  0  0  0  0  0  0
   -5.0483    4.9252  -18.4566 C   0  0  0  0  0  0  0  0  0  0  0  0
   -5.3222    4.9635  -17.1678 N   0  0  0  0  0  0  0  0  0  0  0  0
   -6.6964    4.7335  -16.9498 C   0  0  0  0  0  0  0  0  0  0  0  0
   -7.4130    4.6604  -15.7130 C   0  0  0  0  0  0  0  0  0  0  0  0
   -6.8167    4.8394  -14.3292 C   0  0  0  0  0  0  0  0  0  0  0  0
   -6.3589    3.6931  -13.7513 F   0  0  0  0  0  0  0  0  0  0  0  0
   -5.7793    5.7110  -14.3208 F   0  0  0  0  0  0  0  0  0  0  0  0
   -7.6993    5.3679  -13.4154 F   0  0  0  0  0  0  0  0  0  0  0  0
   -8.8022    4.4008  -15.7877 C   0  0  0  0  0  0  0  0  0  0  0  0
   -9.4750    4.2646  -16.9976 C   0  0  0  0  0  0  0  0  0  0  0  0
   -8.7958    4.3533  -18.1949 C   0  0  0  0  0  0  0  0  0  0  0  0
   -7.4174    4.5669  -18.1390 C   0  0  0  0  0  0  0  0  0  0  0  0
   -6.3737    4.6422  -19.4790 S   0  0  0  0  0  0  0  0  0  0  0  0
  1  2  1  0
  2  3  1  0
  2  4  1  0
  4  5  1  0
  5  6  2  0
  6  7  1  0
  7  8  2  0
  8  9  1  0
  9 10  1  0
  9 11  1  0
  9 12  1  0
  8 13  1  0
 13 14  2  0
 14 15  1  0
 15 16  2  0
 16 17  1  0
 17  5  1  0
 16  7  1  0
M  END
>  <inchikey>  (220) 
ZQJQUNXUVHWSCU-UHFFFAOYSA-N

>  <alias>  (220) 
CC(C)Nc1nc2c(C(F)(F)F)cccc2s1

>  <tags>  (220) 
{'openbind_xx01zvns2b_c1_knitwork_pure', 'fragmenstein_placed'}

>  <HIPPO Pose ID>  (220) 
40869

>  <ref_pdb>  (220) 
41

>  <smiles>  (220) 
C113797-P37

>  <fragmenstein_runtime>  (220) 
11.072302

>  <fragmenstein_outcome>  (220) 
acceptable

>  <fragmenstein_mode>  (220) 
expansion

>  <fragmenstein_error>  (220) 


>  <HIPPO Compound ID>  (220) 
116294

>  <Energy>  (220) 
-3.867234

>  <scratch_subdir>  (220) 
/opt/xchem-fragalysis-2/maxwin/BulkDock/SCRATCH/511031/C113797-P37

$$$$
CC(C)Nc1nc2cc(Cl)ccc2s1
     RDKit          3D

 14 15  0  0  0  0  0  0  0  0999 V2000
   -1.3132    4.6257  -19.6556 C   0  0  0  0  0  0  0  0  0  0  0  0
   -2.4354    5.4289  -19.0181 C   0  0  0  0  0  0  0  0  0  0  0  0
   -2.1089    6.9177  -19.0215 C   0  0  0  0  0  0  0  0  0  0  0  0
   -3.6403    5.2079  -19.7820 N   0  0  0  0  0  0  0  0  0  0  0  0
   -4.8199    5.0103  -19.1742 C   0  0  0  0  0  0  0  0  0  0  0  0
   -5.0535    5.1797  -17.8975 N   0  0  0  0  0  0  0  0  0  0  0  0
   -6.3800    4.9106  -17.6333 C   0  0  0  0  0  0  0  0  0  0  0  0
   -6.9837    4.9974  -16.3761 C   0  0  0  0  0  0  0  0  0  0  0  0
   -8.3453    4.7396  -16.2508 C   0  0  0  0  0  0  0  0  0  0  0  0
   -9.0469    4.9260  -14.6965 Cl  0  0  0  0  0  0  0  0  0  0  0  0
   -9.1219    4.3968  -17.3532 C   0  0  0  0  0  0  0  0  0  0  0  0
   -8.5360    4.2967  -18.6176 C   0  0  0  0  0  0  0  0  0  0  0  0
   -7.1580    4.5467  -18.7283 C   0  0  0  0  0  0  0  0  0  0  0  0
   -6.1401    4.4723  -20.1046 S   0  0  0  0  0  0  0  0  0  0  0  0
  1  2  1  0
  2  3  1  0
  2  4  1  0
  4  5  1  0
  5  6  2  0
  6  7  1  0
  7  8  2  0
  8  9  1  0
  9 10  1  0
  9 11  2  0
 11 12  1  0
 12 13  2  0
 13 14  1  0
 14  5  1  0
 13  7  1  0
M  END
>  <inchikey>  (221) 
AVTSOYJOHLRPIC-UHFFFAOYSA-N

>  <alias>  (221) 
CC(C)Nc1nc2cc(Cl)ccc2s1

>  <tags>  (221) 
{'openbind_xx01zvns2b_c1_knitwork_pure', 'fragmenstein_placed'}

>  <HIPPO Pose ID>  (221) 
40874

>  <ref_pdb>  (221) 
41

>  <smiles>  (221) 
C113802-P37

>  <fragmenstein_runtime>  (221) 
1.522028

>  <fragmenstein_outcome>  (221) 
acceptable

>  <fragmenstein_mode>  (221) 
expansion

>  <fragmenstein_error>  (221) 


>  <HIPPO Compound ID>  (221) 
111696

>  <Energy>  (221) 
-22.908386

>  <scratch_subdir>  (221) 
/opt/xchem-fragalysis-2/maxwin/BulkDock/SCRATCH/511031/C113802-P37

$$$$
O=C(Cc1cccc2cccnc12)NCc1ccco1
     RDKit          3D

 20 22  0  0  0  0  0  0  0  0999 V2000
   -6.5484    2.5645  -13.0007 O   0  0  0  0  0  0  0  0  0  0  0  0
   -5.9165    3.3241  -13.6216 C   0  0  0  0  0  0  0  0  0  0  0  0
   -6.4569    4.6908  -14.0427 C   0  0  0  0  0  0  0  0  0  0  0  0
   -6.9573    4.7259  -15.4675 C   0  0  0  0  0  0  0  0  0  0  0  0
   -8.3247    4.4917  -15.7036 C   0  0  0  0  0  0  0  0  0  0  0  0
   -8.8355    4.5036  -16.9941 C   0  0  0  0  0  0  0  0  0  0  0  0
   -7.9801    4.7434  -18.0602 C   0  0  0  0  0  0  0  0  0  0  0  0
   -6.6134    4.9731  -17.8377 C   0  0  0  0  0  0  0  0  0  0  0  0
   -5.7502    5.2184  -18.9094 C   0  0  0  0  0  0  0  0  0  0  0  0
   -4.3993    5.4314  -18.6793 C   0  0  0  0  0  0  0  0  0  0  0  0
   -3.9571    5.4034  -17.3724 C   0  0  0  0  0  0  0  0  0  0  0  0
   -4.7590    5.1846  -16.3047 N   0  0  0  0  0  0  0  0  0  0  0  0
   -6.0771    4.9637  -16.5300 C   0  0  0  0  0  0  0  0  0  0  0  0
   -4.4404    3.2600  -14.0824 N   0  0  0  0  0  0  0  0  0  0  0  0
   -3.4725    2.2138  -13.9567 C   0  0  0  0  0  0  0  0  0  0  0  0
   -2.5362    2.5485  -12.8623 C   0  0  0  0  0  0  0  0  0  0  0  0
   -2.6178    2.4345  -11.4895 C   0  0  0  0  0  0  0  0  0  0  0  0
   -1.3938    2.9220  -10.9745 C   0  0  0  0  0  0  0  0  0  0  0  0
   -0.6436    3.2998  -12.0631 C   0  0  0  0  0  0  0  0  0  0  0  0
   -1.3258    3.0728  -13.2155 O   0  0  0  0  0  0  0  0  0  0  0  0
  1  2  2  0
  2  3  1  0
  3  4  1  0
  4  5  2  0
  5  6  1  0
  6  7  2  0
  7  8  1  0
  8  9  2  0
  9 10  1  0
 10 11  2  0
 11 12  1  0
 12 13  2  0
  2 14  1  0
 14 15  1  0
 15 16  1  0
 16 17  2  0
 17 18  1  0
 18 19  2  0
 19 20  1  0
 13  4  1  0
 20 16  1  0
 13  8  1  0
M  END
>  <inchikey>  (222) 
HJXSPPNNOFQPBR-UHFFFAOYSA-N

>  <alias>  (222) 
O=C(Cc1cccc2cccnc12)NCc1ccco1

>  <tags>  (222) 
{'openbind_xx01zvns2b_c1_knitwork_pure', 'fragmenstein_placed'}

>  <HIPPO Pose ID>  (222) 
41061

>  <ref_pdb>  (222) 
41

>  <smiles>  (222) 
C4919-P35

>  <fragmenstein_runtime>  (222) 
2.164472

>  <fragmenstein_outcome>  (222) 
acceptable

>  <fragmenstein_mode>  (222) 
expansion

>  <fragmenstein_error>  (222) 


>  <HIPPO Compound ID>  (222) 
114112

>  <Energy>  (222) 
37.485659

>  <scratch_subdir>  (222) 
/opt/xchem-fragalysis-2/maxwin/BulkDock/SCRATCH/511031/C4919-P35

$$$$
O=C(C[C@@H]1CCNC[C@H]1F)NCc1cccc2cccnc12
     RDKit          3D

 22 24  0  0  0  0  0  0  0  0999 V2000
   -6.7666    1.9278  -13.2605 O   0  0  0  0  0  0  0  0  0  0  0  0
   -5.9448    2.7072  -12.9764 C   0  0  0  0  0  0  0  0  0  0  0  0
   -4.7847    2.3557  -12.0315 C   0  0  0  0  0  0  0  0  0  0  0  0
   -3.3621    2.4700  -12.5978 C   0  0  2  0  0  0  0  0  0  0  0  0
   -2.4722    1.3389  -12.0489 C   0  0  0  0  0  0  0  0  0  0  0  0
   -1.0419    1.4392  -12.5758 C   0  0  0  0  0  0  0  0  0  0  0  0
   -0.4151    2.7237  -12.2542 N   0  0  0  0  0  0  0  0  0  0  0  0
   -1.2426    3.8427  -12.7245 C   0  0  0  0  0  0  0  0  0  0  0  0
   -2.6868    3.7941  -12.2121 C   0  0  1  0  0  0  0  0  0  0  0  0
   -3.3754    4.8364  -12.7468 F   0  0  0  0  0  0  0  0  0  0  0  0
   -5.8252    4.2117  -13.3245 N   0  0  0  0  0  0  0  0  0  0  0  0
   -6.7345    5.0847  -14.0096 C   0  0  0  0  0  0  0  0  0  0  0  0
   -7.0464    4.8167  -15.4570 C   0  0  0  0  0  0  0  0  0  0  0  0
   -8.3737    4.4639  -15.7804 C   0  0  0  0  0  0  0  0  0  0  0  0
   -8.7945    4.3671  -17.0994 C   0  0  0  0  0  0  0  0  0  0  0  0
   -7.8843    4.6057  -18.1160 C   0  0  0  0  0  0  0  0  0  0  0  0
   -6.5542    4.9335  -17.8138 C   0  0  0  0  0  0  0  0  0  0  0  0
   -5.6464    5.1834  -18.8470 C   0  0  0  0  0  0  0  0  0  0  0  0
   -4.3333    5.5147  -18.5534 C   0  0  0  0  0  0  0  0  0  0  0  0
   -3.9789    5.6040  -17.2232 C   0  0  0  0  0  0  0  0  0  0  0  0
   -4.8312    5.3936  -16.1954 N   0  0  0  0  0  0  0  0  0  0  0  0
   -6.1087    5.0422  -16.4733 C   0  0  0  0  0  0  0  0  0  0  0  0
  1  2  2  0
  2  3  1  0
  4  3  1  1
  4  5  1  0
  5  6  1  0
  6  7  1  0
  7  8  1  0
  8  9  1  0
  9 10  1  6
  2 11  1  0
 11 12  1  0
 12 13  1  0
 13 14  2  0
 14 15  1  0
 15 16  2  0
 16 17  1  0
 17 18  2  0
 18 19  1  0
 19 20  2  0
 20 21  1  0
 21 22  2  0
  9  4  1  0
 22 13  1  0
 22 17  1  0
M  END
>  <inchikey>  (223) 
XWNZKTSTELJFTK-UHFFFAOYSA-N

>  <alias>  (223) 
O=C(C[C@@H]1CCNC[C@H]1F)NCc1cccc2cccnc12

>  <tags>  (223) 
{'openbind_xx01zvns2b_c1_knitwork_pure', 'fragmenstein_placed'}

>  <HIPPO Pose ID>  (223) 
41066

>  <ref_pdb>  (223) 
41

>  <smiles>  (223) 
C4924-P35

>  <fragmenstein_runtime>  (223) 
4.089481

>  <fragmenstein_outcome>  (223) 
acceptable

>  <fragmenstein_mode>  (223) 
expansion

>  <fragmenstein_error>  (223) 


>  <HIPPO Compound ID>  (223) 
14145

>  <Energy>  (223) 
50.193192

>  <scratch_subdir>  (223) 
/opt/xchem-fragalysis-2/maxwin/BulkDock/SCRATCH/511031/C4924-P35

$$$$
O=C(Cc1cnoc1)NCc1cccc2cccnc12
     RDKit          3D

 20 22  0  0  0  0  0  0  0  0999 V2000
   -6.1782    1.6653  -13.0376 O   0  0  0  0  0  0  0  0  0  0  0  0
   -5.3516    2.4290  -13.3516 C   0  0  0  0  0  0  0  0  0  0  0  0
   -3.8598    2.0829  -13.3494 C   0  0  0  0  0  0  0  0  0  0  0  0
   -3.2716    2.1804  -11.9917 C   0  0  0  0  0  0  0  0  0  0  0  0
   -2.7209    3.3119  -11.3516 C   0  0  0  0  0  0  0  0  0  0  0  0
   -2.2451    3.0300  -10.1368 N   0  0  0  0  0  0  0  0  0  0  0  0
   -2.5149    1.6831   -9.9460 O   0  0  0  0  0  0  0  0  0  0  0  0
   -3.1264    1.1874  -11.0507 C   0  0  0  0  0  0  0  0  0  0  0  0
   -5.4691    3.9112  -13.7985 N   0  0  0  0  0  0  0  0  0  0  0  0
   -6.6258    4.7209  -14.0397 C   0  0  0  0  0  0  0  0  0  0  0  0
   -7.0510    4.7216  -15.4874 C   0  0  0  0  0  0  0  0  0  0  0  0
   -8.4112    4.4841  -15.7684 C   0  0  0  0  0  0  0  0  0  0  0  0
   -8.8843    4.4833  -17.0721 C   0  0  0  0  0  0  0  0  0  0  0  0
   -7.9992    4.7250  -18.1108 C   0  0  0  0  0  0  0  0  0  0  0  0
   -6.6449    4.9818  -17.8483 C   0  0  0  0  0  0  0  0  0  0  0  0
   -5.7636    5.2405  -18.9023 C   0  0  0  0  0  0  0  0  0  0  0  0
   -4.4248    5.4906  -18.6455 C   0  0  0  0  0  0  0  0  0  0  0  0
   -4.0138    5.4870  -17.3291 C   0  0  0  0  0  0  0  0  0  0  0  0
   -4.8335    5.2540  -16.2782 N   0  0  0  0  0  0  0  0  0  0  0  0
   -6.1434    4.9903  -16.5254 C   0  0  0  0  0  0  0  0  0  0  0  0
  1  2  2  0
  2  3  1  0
  3  4  1  0
  4  5  1  0
  5  6  2  0
  6  7  1  0
  7  8  1  0
  2  9  1  0
  9 10  1  0
 10 11  1  0
 11 12  2  0
 12 13  1  0
 13 14  2  0
 14 15  1  0
 15 16  2  0
 16 17  1  0
 17 18  2  0
 18 19  1  0
 19 20  2  0
  8  4  2  0
 20 11  1  0
 20 15  1  0
M  END
>  <inchikey>  (224) 
DAYCWWYRTUMGON-UHFFFAOYSA-N

>  <alias>  (224) 
O=C(Cc1cnoc1)NCc1cccc2cccnc12

>  <tags>  (224) 
{'openbind_xx01zvns2b_c1_knitwork_pure', 'fragmenstein_placed'}

>  <HIPPO Pose ID>  (224) 
41107

>  <ref_pdb>  (224) 
41

>  <smiles>  (224) 
C4960-P35

>  <fragmenstein_runtime>  (224) 
1.993138

>  <fragmenstein_outcome>  (224) 
acceptable

>  <fragmenstein_mode>  (224) 
expansion

>  <fragmenstein_error>  (224) 


>  <HIPPO Compound ID>  (224) 
56919

>  <Energy>  (224) 
38.000773

>  <scratch_subdir>  (224) 
/opt/xchem-fragalysis-2/maxwin/BulkDock/SCRATCH/511031/C4960-P35

$$$$
c1ccc(-c2cc3ccccc3[nH]2)nc1
     RDKit          3D

 15 17  0  0  0  0  0  0  0  0999 V2000
   -1.1072    6.0338  -19.3588 C   0  0  0  0  0  0  0  0  0  0  0  0
   -1.2650    5.4994  -18.0849 C   0  0  0  0  0  0  0  0  0  0  0  0
   -2.5406    5.2557  -17.6042 C   0  0  0  0  0  0  0  0  0  0  0  0
   -3.6253    5.5692  -18.4144 C   0  0  0  0  0  0  0  0  0  0  0  0
   -4.9827    5.4123  -17.9230 C   0  0  0  0  0  0  0  0  0  0  0  0
   -5.4646    5.4135  -16.6253 C   0  0  0  0  0  0  0  0  0  0  0  0
   -6.8369    5.0757  -16.6597 C   0  0  0  0  0  0  0  0  0  0  0  0
   -7.8015    4.8493  -15.6670 C   0  0  0  0  0  0  0  0  0  0  0  0
   -9.0835    4.4663  -16.0581 C   0  0  0  0  0  0  0  0  0  0  0  0
   -9.4212    4.3331  -17.4022 C   0  0  0  0  0  0  0  0  0  0  0  0
   -8.4740    4.5547  -18.4017 C   0  0  0  0  0  0  0  0  0  0  0  0
   -7.1871    4.9236  -17.9989 C   0  0  0  0  0  0  0  0  0  0  0  0
   -6.0618    5.1857  -18.7498 N   0  0  0  0  0  0  0  0  0  0  0  0
   -3.5002    6.0771  -19.6617 N   0  0  0  0  0  0  0  0  0  0  0  0
   -2.2449    6.3067  -20.0996 C   0  0  0  0  0  0  0  0  0  0  0  0
  1  2  2  0
  2  3  1  0
  3  4  2  0
  4  5  1  0
  5  6  2  0
  6  7  1  0
  7  8  2  0
  8  9  1  0
  9 10  2  0
 10 11  1  0
 11 12  2  0
 12 13  1  0
  4 14  1  0
 14 15  2  0
 15  1  1  0
 13  5  1  0
 12  7  1  0
M  END
>  <inchikey>  (225) 
OLGGLCIDAMICTA-UHFFFAOYSA-N

>  <alias>  (225) 
c1ccc(-c2cc3ccccc3[nH]2)nc1

>  <tags>  (225) 
{'openbind_xx01zvns2b_c1_knitwork_pure', 'fragmenstein_placed'}

>  <HIPPO Pose ID>  (225) 
41114

>  <ref_pdb>  (225) 
41

>  <smiles>  (225) 
C8328-P48

>  <fragmenstein_runtime>  (225) 
1.046186

>  <fragmenstein_outcome>  (225) 
acceptable

>  <fragmenstein_mode>  (225) 
expansion

>  <fragmenstein_error>  (225) 


>  <HIPPO Compound ID>  (225) 
8328

>  <Energy>  (225) 
21.770748

>  <scratch_subdir>  (225) 
/opt/xchem-fragalysis-2/maxwin/BulkDock/SCRATCH/511031/C8328-P48

$$$$
c1ccc([C@@H]2CCCNC2)nc1
     RDKit          3D

 12 13  0  0  0  0  0  0  0  0999 V2000
   -8.5982    4.5837  -18.5786 C   0  0  0  0  0  0  0  0  0  0  0  0
   -9.4872    4.3768  -17.5416 C   0  0  0  0  0  0  0  0  0  0  0  0
   -9.0314    4.4710  -16.2307 C   0  0  0  0  0  0  0  0  0  0  0  0
   -7.7086    4.8223  -15.9721 C   0  0  0  0  0  0  0  0  0  0  0  0
   -7.1537    4.9028  -14.5498 C   0  0  2  0  0  0  0  0  0  0  0  0
   -8.2005    4.7927  -13.4157 C   0  0  0  0  0  0  0  0  0  0  0  0
   -7.6930    5.2740  -12.0548 C   0  0  0  0  0  0  0  0  0  0  0  0
   -6.1766    5.3617  -12.0112 C   0  0  0  0  0  0  0  0  0  0  0  0
   -5.6576    6.2886  -13.0185 N   0  0  0  0  0  0  0  0  0  0  0  0
   -6.3300    6.1875  -14.3288 C   0  0  0  0  0  0  0  0  0  0  0  0
   -6.8369    5.0516  -16.9905 N   0  0  0  0  0  0  0  0  0  0  0  0
   -7.2940    4.9112  -18.2606 C   0  0  0  0  0  0  0  0  0  0  0  0
  1  2  2  0
  2  3  1  0
  3  4  2  0
  5  4  1  6
  5  6  1  0
  6  7  1  0
  7  8  1  0
  8  9  1  0
  9 10  1  0
  4 11  1  0
 11 12  2  0
 12  1  1  0
 10  5  1  0
M  END
>  <inchikey>  (226) 
VOQJCJAKCAHLSO-UHFFFAOYSA-N

>  <alias>  (226) 
c1ccc([C@@H]2CCCNC2)nc1

>  <tags>  (226) 
{'openbind_xx01zvns2b_c1_knitwork_pure', 'fragmenstein_placed'}

>  <HIPPO Pose ID>  (226) 
41154

>  <ref_pdb>  (226) 
41

>  <smiles>  (226) 
C3619-P48

>  <fragmenstein_runtime>  (226) 
8.401709

>  <fragmenstein_outcome>  (226) 
acceptable

>  <fragmenstein_mode>  (226) 
expansion

>  <fragmenstein_error>  (226) 


>  <HIPPO Compound ID>  (226) 
15195

>  <Energy>  (226) 
37.415978

>  <scratch_subdir>  (226) 
/opt/xchem-fragalysis-2/maxwin/BulkDock/SCRATCH/511031/C3619-P48

$$$$
CC(C)(CO)NC(=O)c1cc(F)cc2cccnc12
     RDKit          3D

 19 20  0  0  0  0  0  0  0  0999 V2000
   -6.2792    2.4791  -11.7321 C   0  0  0  0  0  0  0  0  0  0  0  0
   -7.0830    3.7479  -12.0578 C   0  0  0  0  0  0  0  0  0  0  0  0
   -6.2935    4.9795  -11.5921 C   0  0  0  0  0  0  0  0  0  0  0  0
   -8.4555    3.6989  -11.3430 C   0  0  0  0  0  0  0  0  0  0  0  0
   -8.3357    3.6360   -9.9257 O   0  0  0  0  0  0  0  0  0  0  0  0
   -7.2808    3.8380  -13.5068 N   0  0  0  0  0  0  0  0  0  0  0  0
   -8.2460    4.7066  -14.3320 C   0  0  0  0  0  0  0  0  0  0  0  0
   -9.0918    5.4333  -13.9882 O   0  0  0  0  0  0  0  0  0  0  0  0
   -8.0957    4.4703  -15.7878 C   0  0  0  0  0  0  0  0  0  0  0  0
   -9.2571    4.0616  -16.4499 C   0  0  0  0  0  0  0  0  0  0  0  0
   -9.2619    3.9520  -17.8221 C   0  0  0  0  0  0  0  0  0  0  0  0
  -10.3807    3.5752  -18.4457 F   0  0  0  0  0  0  0  0  0  0  0  0
   -8.1239    4.2405  -18.5495 C   0  0  0  0  0  0  0  0  0  0  0  0
   -6.9500    4.6297  -17.8869 C   0  0  0  0  0  0  0  0  0  0  0  0
   -5.7963    4.9235  -18.6218 C   0  0  0  0  0  0  0  0  0  0  0  0
   -4.6344    5.2951  -17.9627 C   0  0  0  0  0  0  0  0  0  0  0  0
   -4.6691    5.3662  -16.5851 C   0  0  0  0  0  0  0  0  0  0  0  0
   -5.7672    5.1036  -15.8425 N   0  0  0  0  0  0  0  0  0  0  0  0
   -6.9074    4.7394  -16.4741 C   0  0  0  0  0  0  0  0  0  0  0  0
  1  2  1  0
  2  3  1  0
  2  4  1  0
  4  5  1  0
  2  6  1  0
  6  7  1  0
  7  8  2  0
  7  9  1  0
  9 10  2  0
 10 11  1  0
 11 12  1  0
 11 13  2  0
 13 14  1  0
 14 15  2  0
 15 16  1  0
 16 17  2  0
 17 18  1  0
 18 19  2  0
 19  9  1  0
 19 14  1  0
M  END
>  <inchikey>  (227) 
BRDAOGJAUHHEEL-UHFFFAOYSA-N

>  <alias>  (227) 
CC(C)(CO)NC(=O)c1cc(F)cc2cccnc12

>  <tags>  (227) 
{'openbind_xx01zvns2b_c1_knitwork_pure', 'fragmenstein_placed'}

>  <HIPPO Pose ID>  (227) 
41240

>  <ref_pdb>  (227) 
41

>  <smiles>  (227) 
C8629-P98

>  <fragmenstein_runtime>  (227) 
3.356909

>  <fragmenstein_outcome>  (227) 
acceptable

>  <fragmenstein_mode>  (227) 
expansion

>  <fragmenstein_error>  (227) 


>  <HIPPO Compound ID>  (227) 
51683

>  <Energy>  (227) 
61.785141

>  <scratch_subdir>  (227) 
/opt/xchem-fragalysis-2/maxwin/BulkDock/SCRATCH/511031/C8629-P98

$$$$
c1cc(-c2ccncn2)ccn1
     RDKit          3D

 12 13  0  0  0  0  0  0  0  0999 V2000
   -8.1866    3.8576  -11.0990 C   0  0  0  0  0  0  0  0  0  0  0  0
   -8.0454    3.8195  -12.4800 C   0  0  0  0  0  0  0  0  0  0  0  0
   -7.7931    5.0062  -13.1817 C   0  0  0  0  0  0  0  0  0  0  0  0
   -7.6354    5.0155  -14.6487 C   0  0  0  0  0  0  0  0  0  0  0  0
   -8.5966    4.4912  -15.4942 C   0  0  0  0  0  0  0  0  0  0  0  0
   -8.3346    4.5361  -16.8435 C   0  0  0  0  0  0  0  0  0  0  0  0
   -7.2128    5.0657  -17.3507 N   0  0  0  0  0  0  0  0  0  0  0  0
   -6.3397    5.5443  -16.4587 C   0  0  0  0  0  0  0  0  0  0  0  0
   -6.5010    5.5760  -15.1247 N   0  0  0  0  0  0  0  0  0  0  0  0
   -7.6844    6.1826  -12.4306 C   0  0  0  0  0  0  0  0  0  0  0  0
   -7.8416    6.1247  -11.0522 C   0  0  0  0  0  0  0  0  0  0  0  0
   -8.0892    4.9895  -10.3681 N   0  0  0  0  0  0  0  0  0  0  0  0
  1  2  2  0
  2  3  1  0
  3  4  1  0
  4  5  2  0
  5  6  1  0
  6  7  2  0
  7  8  1  0
  8  9  2  0
  3 10  2  0
 10 11  1  0
 11 12  2  0
 12  1  1  0
  9  4  1  0
M  END
>  <inchikey>  (228) 
PASHUFBXPBKAKD-UHFFFAOYSA-N

>  <alias>  (228) 
c1cc(-c2ccncn2)ccn1

>  <tags>  (228) 
{'openbind_xx01zvns2b_c1_knitwork_pure', 'fragmenstein_placed'}

>  <HIPPO Pose ID>  (228) 
41345

>  <ref_pdb>  (228) 
41

>  <smiles>  (228) 
C3282-P84

>  <fragmenstein_runtime>  (228) 
1.106621

>  <fragmenstein_outcome>  (228) 
acceptable

>  <fragmenstein_mode>  (228) 
expansion

>  <fragmenstein_error>  (228) 


>  <HIPPO Compound ID>  (228) 
5492

>  <Energy>  (228) 
0.269688

>  <scratch_subdir>  (228) 
/opt/xchem-fragalysis-2/maxwin/BulkDock/SCRATCH/511031/C3282-P84

$$$$
N#Cc1cc(NCc2ccncn2)ccn1
     RDKit          3D

 16 17  0  0  0  0  0  0  0  0999 V2000
   -2.9453    6.0269  -18.5440 N   0  0  0  0  0  0  0  0  0  0  0  0
   -3.9934    5.6774  -18.1812 C   0  0  0  0  0  0  0  0  0  0  0  0
   -5.2829    5.2788  -17.7059 C   0  0  0  0  0  0  0  0  0  0  0  0
   -5.5210    5.1597  -16.3493 C   0  0  0  0  0  0  0  0  0  0  0  0
   -6.8077    4.8494  -15.9150 C   0  0  0  0  0  0  0  0  0  0  0  0
   -6.9860    4.7109  -14.5349 N   0  0  0  0  0  0  0  0  0  0  0  0
   -8.3151    4.9404  -13.9758 C   0  0  0  0  0  0  0  0  0  0  0  0
   -8.2408    4.8789  -12.4618 C   0  0  0  0  0  0  0  0  0  0  0  0
   -8.0304    6.0312  -11.7273 C   0  0  0  0  0  0  0  0  0  0  0  0
   -7.9791    5.8773  -10.3610 C   0  0  0  0  0  0  0  0  0  0  0  0
   -8.1109    4.6939   -9.7376 N   0  0  0  0  0  0  0  0  0  0  0  0
   -8.2858    3.6288  -10.5366 C   0  0  0  0  0  0  0  0  0  0  0  0
   -8.3522    3.6623  -11.8757 N   0  0  0  0  0  0  0  0  0  0  0  0
   -7.7824    4.5903  -16.8775 C   0  0  0  0  0  0  0  0  0  0  0  0
   -7.4487    4.7201  -18.2188 C   0  0  0  0  0  0  0  0  0  0  0  0
   -6.2215    5.0750  -18.6506 N   0  0  0  0  0  0  0  0  0  0  0  0
  1  2  3  0
  2  3  1  0
  3  4  2  0
  4  5  1  0
  5  6  1  0
  6  7  1  0
  7  8  1  0
  8  9  2  0
  9 10  1  0
 10 11  2  0
 11 12  1  0
 12 13  2  0
  5 14  2  0
 14 15  1  0
 15 16  2  0
 16  3  1  0
 13  8  1  0
M  END
>  <inchikey>  (229) 
KVWQXXISWMUKTC-UHFFFAOYSA-N

>  <alias>  (229) 
N#Cc1cc(NCc2ccncn2)ccn1

>  <tags>  (229) 
{'openbind_xx01zvns2b_c1_knitwork_pure', 'fragmenstein_placed'}

>  <HIPPO Pose ID>  (229) 
41355

>  <ref_pdb>  (229) 
41

>  <smiles>  (229) 
C3309-P84

>  <fragmenstein_runtime>  (229) 
0.918594

>  <fragmenstein_outcome>  (229) 
acceptable

>  <fragmenstein_mode>  (229) 
expansion

>  <fragmenstein_error>  (229) 


>  <HIPPO Compound ID>  (229) 
10523

>  <Energy>  (229) 
46.429896

>  <scratch_subdir>  (229) 
/opt/xchem-fragalysis-2/maxwin/BulkDock/SCRATCH/511031/C3309-P84

$$$$
CCOCCN1CCN(Cc2ccc3c(c2)CNC3)CC1
     RDKit          3D

 21 23  0  0  0  0  0  0  0  0999 V2000
  -10.2348    4.4237  -18.1644 C   0  0  0  0  0  0  0  0  0  0  0  0
   -8.9337    4.6890  -18.8771 C   0  0  0  0  0  0  0  0  0  0  0  0
   -7.8956    4.0169  -18.1919 O   0  0  0  0  0  0  0  0  0  0  0  0
   -6.6202    4.6289  -18.3403 C   0  0  0  0  0  0  0  0  0  0  0  0
   -6.2982    5.6217  -17.2045 C   0  0  0  0  0  0  0  0  0  0  0  0
   -6.5196    5.1084  -15.8361 N   0  0  0  0  0  0  0  0  0  0  0  0
   -5.7400    5.8379  -14.8202 C   0  0  0  0  0  0  0  0  0  0  0  0
   -6.1332    5.4547  -13.3591 C   0  0  0  0  0  0  0  0  0  0  0  0
   -7.5773    5.5681  -13.0511 N   0  0  0  0  0  0  0  0  0  0  0  0
   -8.1116    4.3173  -12.4811 C   0  0  0  0  0  0  0  0  0  0  0  0
   -8.1353    4.2823  -10.9691 C   0  0  0  0  0  0  0  0  0  0  0  0
   -8.0594    5.4408  -10.1677 C   0  0  0  0  0  0  0  0  0  0  0  0
   -8.2058    5.3724   -8.7775 C   0  0  0  0  0  0  0  0  0  0  0  0
   -8.4371    4.1367   -8.2026 C   0  0  0  0  0  0  0  0  0  0  0  0
   -8.5187    2.9917   -8.9805 C   0  0  0  0  0  0  0  0  0  0  0  0
   -8.3762    3.0464  -10.3537 C   0  0  0  0  0  0  0  0  0  0  0  0
   -8.7955    1.8131   -8.1148 C   0  0  0  0  0  0  0  0  0  0  0  0
   -8.6549    2.2978   -6.7165 N   0  0  0  0  0  0  0  0  0  0  0  0
   -8.6822    3.7762   -6.7790 C   0  0  0  0  0  0  0  0  0  0  0  0
   -8.3276    5.9221  -14.2578 C   0  0  0  0  0  0  0  0  0  0  0  0
   -7.9550    5.0999  -15.4991 C   0  0  0  0  0  0  0  0  0  0  0  0
  1  2  1  0
  2  3  1  0
  3  4  1  0
  4  5  1  0
  5  6  1  0
  6  7  1  0
  7  8  1  0
  8  9  1  0
  9 10  1  0
 10 11  1  0
 11 12  2  0
 12 13  1  0
 13 14  2  0
 14 15  1  0
 15 16  2  0
 15 17  1  0
 17 18  1  0
 18 19  1  0
  9 20  1  0
 20 21  1  0
 21  6  1  0
 16 11  1  0
 19 14  1  0
M  END
>  <inchikey>  (230) 
GATQCWTYQVNDRS-UHFFFAOYSA-N

>  <alias>  (230) 
CCOCCN1CCN(Cc2ccc3c(c2)CNC3)CC1

>  <tags>  (230) 
{'openbind_xx01zvns2b_c1_knitwork_pure', 'fragmenstein_placed'}

>  <HIPPO Pose ID>  (230) 
41435

>  <ref_pdb>  (230) 
41

>  <smiles>  (230) 
C16382-P62

>  <fragmenstein_runtime>  (230) 
7.324034

>  <fragmenstein_outcome>  (230) 
acceptable

>  <fragmenstein_mode>  (230) 
expansion

>  <fragmenstein_error>  (230) 


>  <HIPPO Compound ID>  (230) 
56798

>  <Energy>  (230) 
135.774341

>  <scratch_subdir>  (230) 
/opt/xchem-fragalysis-2/maxwin/BulkDock/SCRATCH/511031/C16382-P62

$$$$
COC1(C[C@H](C)Nc2cccc3cccnc23)CCC1
     RDKit          3D

 20 22  0  0  0  0  0  0  0  0999 V2000
  -25.1938    6.0110    5.0012 C   0  0  0  0  0  0  0  0  0  0  0  0
  -25.5332    4.8040    4.3331 O   0  0  0  0  0  0  0  0  0  0  0  0
  -25.7554    4.8621    2.8959 C   0  0  0  0  0  0  0  0  0  0  0  0
  -24.4233    4.8830    2.1316 C   0  0  0  0  0  0  0  0  0  0  0  0
  -23.5802    3.6236    2.3900 C   0  0  2  0  0  0  0  0  0  0  0  0
  -22.5897    3.7660    3.5465 C   0  0  0  0  0  0  0  0  0  0  0  0
  -22.9694    3.1490    1.1259 N   0  0  0  0  0  0  0  0  0  0  0  0
  -21.6174    3.4236    0.8229 C   0  0  0  0  0  0  0  0  0  0  0  0
  -20.7681    2.3078    0.6834 C   0  0  0  0  0  0  0  0  0  0  0  0
  -19.4044    2.4553    0.4616 C   0  0  0  0  0  0  0  0  0  0  0  0
  -18.8627    3.7280    0.3722 C   0  0  0  0  0  0  0  0  0  0  0  0
  -19.6833    4.8586    0.4905 C   0  0  0  0  0  0  0  0  0  0  0  0
  -19.1208    6.1396    0.4133 C   0  0  0  0  0  0  0  0  0  0  0  0
  -19.9274    7.2599    0.5327 C   0  0  0  0  0  0  0  0  0  0  0  0
  -21.2755    7.0583    0.7217 C   0  0  0  0  0  0  0  0  0  0  0  0
  -21.8470    5.8391    0.8152 N   0  0  0  0  0  0  0  0  0  0  0  0
  -21.0783    4.7305    0.7121 C   0  0  0  0  0  0  0  0  0  0  0  0
  -26.7914    5.9194    2.3915 C   0  0  0  0  0  0  0  0  0  0  0  0
  -27.8765    4.8363    2.5092 C   0  0  0  0  0  0  0  0  0  0  0  0
  -26.7634    3.7837    2.3811 C   0  0  0  0  0  0  0  0  0  0  0  0
  1  2  1  0
  2  3  1  0
  3  4  1  0
  4  5  1  0
  5  6  1  1
  5  7  1  0
  7  8  1  0
  8  9  2  0
  9 10  1  0
 10 11  2  0
 11 12  1  0
 12 13  2  0
 13 14  1  0
 14 15  2  0
 15 16  1  0
 16 17  2  0
  3 18  1  0
 18 19  1  0
 19 20  1  0
 20  3  1  0
 17  8  1  0
 17 12  1  0
M  END
>  <inchikey>  (231) 
SHESSUBUOPXHKW-UHFFFAOYSA-N

>  <alias>  (231) 
COC1(C[C@H](C)Nc2cccc3cccnc23)CCC1

>  <tags>  (231) 
{'openbind_xx01zvns2b_c1_knitwork_pure', 'fragmenstein_placed'}

>  <HIPPO Pose ID>  (231) 
41666

>  <ref_pdb>  (231) 
41

>  <smiles>  (231) 
C48788-P7

>  <fragmenstein_runtime>  (231) 
24.541138

>  <fragmenstein_outcome>  (231) 
acceptable

>  <fragmenstein_mode>  (231) 
expansion

>  <fragmenstein_error>  (231) 


>  <HIPPO Compound ID>  (231) 
48463

>  <Energy>  (231) 
93.283443

>  <scratch_subdir>  (231) 
/opt/xchem-fragalysis-2/maxwin/BulkDock/SCRATCH/511031/C48788-P7

$$$$
CN(C)Cc1cnc(CNc2ccc3c(c2)CNC3)s1
     RDKit          3D

 20 22  0  0  0  0  0  0  0  0999 V2000
   -8.4740    4.4935  -19.0903 C   0  0  0  0  0  0  0  0  0  0  0  0
   -7.4364    5.1838  -18.3286 N   0  0  0  0  0  0  0  0  0  0  0  0
   -6.4253    5.8141  -19.1632 C   0  0  0  0  0  0  0  0  0  0  0  0
   -6.8152    4.2646  -17.4033 C   0  0  0  0  0  0  0  0  0  0  0  0
   -6.6881    4.9081  -16.0893 C   0  0  0  0  0  0  0  0  0  0  0  0
   -5.6181    5.5782  -15.5485 C   0  0  0  0  0  0  0  0  0  0  0  0
   -5.7929    6.0016  -14.2540 N   0  0  0  0  0  0  0  0  0  0  0  0
   -6.9808    5.6126  -13.8321 C   0  0  0  0  0  0  0  0  0  0  0  0
   -7.4856    5.7411  -12.4329 C   0  0  0  0  0  0  0  0  0  0  0  0
   -7.8369    4.4708  -11.8223 N   0  0  0  0  0  0  0  0  0  0  0  0
   -8.1722    4.3763  -10.4799 C   0  0  0  0  0  0  0  0  0  0  0  0
   -8.0496    5.4444   -9.5698 C   0  0  0  0  0  0  0  0  0  0  0  0
   -8.2655    5.2720   -8.1989 C   0  0  0  0  0  0  0  0  0  0  0  0
   -8.5907    4.0110   -7.7455 C   0  0  0  0  0  0  0  0  0  0  0  0
   -8.7000    2.9442   -8.6254 C   0  0  0  0  0  0  0  0  0  0  0  0
   -8.4954    3.1099   -9.9821 C   0  0  0  0  0  0  0  0  0  0  0  0
   -8.9484    1.6947   -7.8552 C   0  0  0  0  0  0  0  0  0  0  0  0
   -9.3292    2.1488   -6.4967 N   0  0  0  0  0  0  0  0  0  0  0  0
   -8.8112    3.5232   -6.3555 C   0  0  0  0  0  0  0  0  0  0  0  0
   -7.9922    4.8652  -14.9919 S   0  0  0  0  0  0  0  0  0  0  0  0
  1  2  1  0
  2  3  1  0
  2  4  1  0
  4  5  1  0
  5  6  2  0
  6  7  1  0
  7  8  2  0
  8  9  1  0
  9 10  1  0
 10 11  1  0
 11 12  2  0
 12 13  1  0
 13 14  2  0
 14 15  1  0
 15 16  2  0
 15 17  1  0
 17 18  1  0
 18 19  1  0
  8 20  1  0
 20  5  1  0
 16 11  1  0
 19 14  1  0
M  END
>  <inchikey>  (232) 
GMRFTJIHAOVCAY-UHFFFAOYSA-N

>  <alias>  (232) 
CN(C)Cc1cnc(CNc2ccc3c(c2)CNC3)s1

>  <tags>  (232) 
{'openbind_xx01zvns2b_c1_knitwork_pure', 'fragmenstein_placed'}

>  <HIPPO Pose ID>  (232) 
41809

>  <ref_pdb>  (232) 
41

>  <smiles>  (232) 
C6546-P43

>  <fragmenstein_runtime>  (232) 
8.308218

>  <fragmenstein_outcome>  (232) 
acceptable

>  <fragmenstein_mode>  (232) 
expansion

>  <fragmenstein_error>  (232) 


>  <HIPPO Compound ID>  (232) 
49351

>  <Energy>  (232) 
58.153202

>  <scratch_subdir>  (232) 
/opt/xchem-fragalysis-2/maxwin/BulkDock/SCRATCH/511031/C6546-P43

$$$$
CC(C)(C(=O)NCc1nnc2ccc(Cl)cn12)c1ccccn1
     RDKit          3D

 23 25  0  0  0  0  0  0  0  0999 V2000
   -7.3782    8.9886  -12.6552 C   0  0  0  0  0  0  0  0  0  0  0  0
   -8.4423    8.1320  -11.9454 C   0  0  0  0  0  0  0  0  0  0  0  0
   -7.8922    7.7104  -10.5550 C   0  0  0  0  0  0  0  0  0  0  0  0
   -8.7708    6.8530  -12.8324 C   0  0  0  0  0  0  0  0  0  0  0  0
   -9.7869    6.7418  -13.3988 O   0  0  0  0  0  0  0  0  0  0  0  0
   -7.5359    5.9146  -12.7910 N   0  0  0  0  0  0  0  0  0  0  0  0
   -7.3364    4.6107  -13.3579 C   0  0  0  0  0  0  0  0  0  0  0  0
   -6.6399    4.7992  -14.6451 C   0  0  0  0  0  0  0  0  0  0  0  0
   -5.3797    5.1664  -14.7919 N   0  0  0  0  0  0  0  0  0  0  0  0
   -5.1050    5.2407  -16.1354 N   0  0  0  0  0  0  0  0  0  0  0  0
   -6.2013    4.9238  -16.7868 C   0  0  0  0  0  0  0  0  0  0  0  0
   -6.4995    4.8152  -18.1707 C   0  0  0  0  0  0  0  0  0  0  0  0
   -7.7568    4.5208  -18.5493 C   0  0  0  0  0  0  0  0  0  0  0  0
   -8.8189    4.3552  -17.5774 C   0  0  0  0  0  0  0  0  0  0  0  0
  -10.4289    4.2510  -18.1322 Cl  0  0  0  0  0  0  0  0  0  0  0  0
   -8.5323    4.3944  -16.2683 C   0  0  0  0  0  0  0  0  0  0  0  0
   -7.2239    4.6618  -15.8832 N   0  0  0  0  0  0  0  0  0  0  0  0
   -9.7136    8.9886  -11.7298 C   0  0  0  0  0  0  0  0  0  0  0  0
  -10.4543    9.5007  -12.7972 C   0  0  0  0  0  0  0  0  0  0  0  0
  -11.6294   10.2081  -12.5492 C   0  0  0  0  0  0  0  0  0  0  0  0
  -12.0410   10.4101  -11.2417 C   0  0  0  0  0  0  0  0  0  0  0  0
  -11.2464    9.9058  -10.2323 C   0  0  0  0  0  0  0  0  0  0  0  0
  -10.0993    9.2214  -10.4476 N   0  0  0  0  0  0  0  0  0  0  0  0
  1  2  1  0
  2  3  1  0
  2  4  1  0
  4  5  2  0
  4  6  1  0
  6  7  1  0
  7  8  1  0
  8  9  2  0
  9 10  1  0
 10 11  2  0
 11 12  1  0
 12 13  2  0
 13 14  1  0
 14 15  1  0
 14 16  2  0
 16 17  1  0
  2 18  1  0
 18 19  2  0
 19 20  1  0
 20 21  2  0
 21 22  1  0
 22 23  2  0
 17  8  1  0
 23 18  1  0
 17 11  1  0
M  END
>  <inchikey>  (233) 
UIQCCKMYZNFSCI-UHFFFAOYSA-N

>  <alias>  (233) 
CC(C)(C(=O)NCc1nnc2ccc(Cl)cn12)c1ccccn1

>  <tags>  (233) 
{'openbind_xx01zvns2b_c1_knitwork_pure', 'fragmenstein_placed'}

>  <HIPPO Pose ID>  (233) 
41892

>  <ref_pdb>  (233) 
41

>  <smiles>  (233) 
C114224-P58

>  <fragmenstein_runtime>  (233) 
3.050059

>  <fragmenstein_outcome>  (233) 
acceptable

>  <fragmenstein_mode>  (233) 
expansion

>  <fragmenstein_error>  (233) 


>  <HIPPO Compound ID>  (233) 
11370

>  <Energy>  (233) 
47.819332

>  <scratch_subdir>  (233) 
/opt/xchem-fragalysis-2/maxwin/BulkDock/SCRATCH/511031/C114224-P58

$$$$
CN1CCC(=O)[C@H](CCc2ccncc2)C1
     RDKit          3D

 16 17  0  0  0  0  0  0  0  0999 V2000
   -5.0927    5.3754  -17.7044 C   0  0  0  0  0  0  0  0  0  0  0  0
   -6.5476    5.4381  -17.5403 N   0  0  0  0  0  0  0  0  0  0  0  0
   -7.1815    5.0420  -18.8112 C   0  0  0  0  0  0  0  0  0  0  0  0
   -8.6940    5.0767  -18.7408 C   0  0  0  0  0  0  0  0  0  0  0  0
   -9.2574    4.5276  -17.4512 C   0  0  0  0  0  0  0  0  0  0  0  0
  -10.4004    4.0621  -17.4521 O   0  0  0  0  0  0  0  0  0  0  0  0
   -8.4434    4.6278  -16.1545 C   0  0  2  0  0  0  0  0  0  0  0  0
   -8.7760    5.8934  -15.3474 C   0  0  0  0  0  0  0  0  0  0  0  0
   -7.8740    6.2589  -14.1602 C   0  0  0  0  0  0  0  0  0  0  0  0
   -8.1112    5.6143  -12.8175 C   0  0  0  0  0  0  0  0  0  0  0  0
   -8.1900    6.4364  -11.6839 C   0  0  0  0  0  0  0  0  0  0  0  0
   -8.3056    5.8594  -10.4294 C   0  0  0  0  0  0  0  0  0  0  0  0
   -8.3442    4.5321  -10.2215 N   0  0  0  0  0  0  0  0  0  0  0  0
   -8.2721    3.7466  -11.3181 C   0  0  0  0  0  0  0  0  0  0  0  0
   -8.1471    4.2342  -12.6161 C   0  0  0  0  0  0  0  0  0  0  0  0
   -6.9661    4.4908  -16.5020 C   0  0  0  0  0  0  0  0  0  0  0  0
  1  2  1  0
  2  3  1  0
  3  4  1  0
  4  5  1  0
  5  6  2  0
  5  7  1  0
  7  8  1  6
  8  9  1  0
  9 10  1  0
 10 11  2  0
 11 12  1  0
 12 13  2  0
 13 14  1  0
 14 15  2  0
  7 16  1  0
 16  2  1  0
 15 10  1  0
M  END
>  <inchikey>  (234) 
HAFNKRRKELEHKA-UHFFFAOYSA-N

>  <alias>  (234) 
CN1CCC(=O)[C@H](CCc2ccncc2)C1

>  <tags>  (234) 
{'openbind_xx01zvns2b_c1_knitwork_pure', 'fragmenstein_placed'}

>  <HIPPO Pose ID>  (234) 
41945

>  <ref_pdb>  (234) 
41

>  <smiles>  (234) 
C51679-P22

>  <fragmenstein_runtime>  (234) 
1.936794

>  <fragmenstein_outcome>  (234) 
acceptable

>  <fragmenstein_mode>  (234) 
expansion

>  <fragmenstein_error>  (234) 


>  <HIPPO Compound ID>  (234) 
52810

>  <Energy>  (234) 
29.913708

>  <scratch_subdir>  (234) 
/opt/xchem-fragalysis-2/maxwin/BulkDock/SCRATCH/511031/C51679-P22

$$$$
Cc1ccnc(NC(=O)c2ccn3ccnc3c2)c1
     RDKit          3D

 19 21  0  0  0  0  0  0  0  0999 V2000
   -8.3811    4.5925  -19.1538 C   0  0  0  0  0  0  0  0  0  0  0  0
   -7.3720    4.8338  -18.0815 C   0  0  0  0  0  0  0  0  0  0  0  0
   -6.0264    5.0205  -18.3786 C   0  0  0  0  0  0  0  0  0  0  0  0
   -5.1398    5.1838  -17.3308 C   0  0  0  0  0  0  0  0  0  0  0  0
   -5.5015    5.1882  -16.0296 N   0  0  0  0  0  0  0  0  0  0  0  0
   -6.8164    5.0402  -15.7676 C   0  0  0  0  0  0  0  0  0  0  0  0
   -7.1679    5.0147  -14.4377 N   0  0  0  0  0  0  0  0  0  0  0  0
   -8.5421    5.2016  -13.7600 C   0  0  0  0  0  0  0  0  0  0  0  0
   -9.6040    5.3301  -14.2257 O   0  0  0  0  0  0  0  0  0  0  0  0
   -8.3310    5.1064  -12.2984 C   0  0  0  0  0  0  0  0  0  0  0  0
   -8.1188    6.2873  -11.4749 C   0  0  0  0  0  0  0  0  0  0  0  0
   -8.0563    6.1286  -10.1405 C   0  0  0  0  0  0  0  0  0  0  0  0
   -8.1930    4.8480   -9.6028 N   0  0  0  0  0  0  0  0  0  0  0  0
   -8.1801    4.4401   -8.2945 C   0  0  0  0  0  0  0  0  0  0  0  0
   -8.3634    3.0758   -8.3351 C   0  0  0  0  0  0  0  0  0  0  0  0
   -8.5046    2.6400   -9.6235 N   0  0  0  0  0  0  0  0  0  0  0  0
   -8.3803    3.7075  -10.3727 C   0  0  0  0  0  0  0  0  0  0  0  0
   -8.4376    3.8691  -11.7787 C   0  0  0  0  0  0  0  0  0  0  0  0
   -7.7778    4.8733  -16.7502 C   0  0  0  0  0  0  0  0  0  0  0  0
  1  2  1  0
  2  3  2  0
  3  4  1  0
  4  5  2  0
  5  6  1  0
  6  7  1  0
  7  8  1  0
  8  9  2  0
  8 10  1  0
 10 11  1  0
 11 12  2  0
 12 13  1  0
 13 14  1  0
 14 15  2  0
 15 16  1  0
 16 17  2  0
 17 18  1  0
  6 19  2  0
 19  2  1  0
 18 10  2  0
 17 13  1  0
M  END
>  <inchikey>  (235) 
QOWAIOHGWKHHEJ-UHFFFAOYSA-N

>  <alias>  (235) 
Cc1ccnc(NC(=O)c2ccn3ccnc3c2)c1

>  <tags>  (235) 
{'openbind_xx01zvns2b_c1_knitwork_pure', 'fragmenstein_placed'}

>  <HIPPO Pose ID>  (235) 
41963

>  <ref_pdb>  (235) 
41

>  <smiles>  (235) 
C48444-P22

>  <fragmenstein_runtime>  (235) 
2.24118

>  <fragmenstein_outcome>  (235) 
acceptable

>  <fragmenstein_mode>  (235) 
expansion

>  <fragmenstein_error>  (235) 


>  <HIPPO Compound ID>  (235) 
9466

>  <Energy>  (235) 
12.683809

>  <scratch_subdir>  (235) 
/opt/xchem-fragalysis-2/maxwin/BulkDock/SCRATCH/511031/C48444-P22

$$$$
CC(C)c1cccc(NC(=O)c2ccn3ccnc3c2)n1
     RDKit          3D

 21 23  0  0  0  0  0  0  0  0999 V2000
   -2.8167    4.6431  -18.4805 C   0  0  0  0  0  0  0  0  0  0  0  0
   -3.5060    5.4330  -17.3703 C   0  0  0  0  0  0  0  0  0  0  0  0
   -2.7567    5.1817  -16.0528 C   0  0  0  0  0  0  0  0  0  0  0  0
   -5.0019    5.1765  -17.2652 C   0  0  0  0  0  0  0  0  0  0  0  0
   -5.8449    5.1921  -18.3746 C   0  0  0  0  0  0  0  0  0  0  0  0
   -7.2210    5.0590  -18.1880 C   0  0  0  0  0  0  0  0  0  0  0  0
   -7.7301    4.9475  -16.8987 C   0  0  0  0  0  0  0  0  0  0  0  0
   -6.8313    4.9469  -15.8494 C   0  0  0  0  0  0  0  0  0  0  0  0
   -7.2195    4.8756  -14.5318 N   0  0  0  0  0  0  0  0  0  0  0  0
   -8.5887    5.1385  -13.8760 C   0  0  0  0  0  0  0  0  0  0  0  0
   -9.6223    5.3822  -14.3561 O   0  0  0  0  0  0  0  0  0  0  0  0
   -8.3937    5.0552  -12.4075 C   0  0  0  0  0  0  0  0  0  0  0  0
   -8.2437    6.2591  -11.5994 C   0  0  0  0  0  0  0  0  0  0  0  0
   -8.1691    6.1281  -10.2628 C   0  0  0  0  0  0  0  0  0  0  0  0
   -8.2369    4.8521   -9.7036 N   0  0  0  0  0  0  0  0  0  0  0  0
   -8.2034    4.4679   -8.3883 C   0  0  0  0  0  0  0  0  0  0  0  0
   -8.3153    3.0956   -8.4057 C   0  0  0  0  0  0  0  0  0  0  0  0
   -8.4237    2.6312   -9.6873 N   0  0  0  0  0  0  0  0  0  0  0  0
   -8.3621    3.6908  -10.4551 C   0  0  0  0  0  0  0  0  0  0  0  0
   -8.4286    3.8238  -11.8648 C   0  0  0  0  0  0  0  0  0  0  0  0
   -5.4970    5.0454  -16.0140 N   0  0  0  0  0  0  0  0  0  0  0  0
  1  2  1  0
  2  3  1  0
  2  4  1  0
  4  5  2  0
  5  6  1  0
  6  7  2  0
  7  8  1  0
  8  9  1  0
  9 10  1  0
 10 11  2  0
 10 12  1  0
 12 13  1  0
 13 14  2  0
 14 15  1  0
 15 16  1  0
 16 17  2  0
 17 18  1  0
 18 19  2  0
 19 20  1  0
  8 21  2  0
 21  4  1  0
 20 12  2  0
 19 15  1  0
M  END
>  <inchikey>  (236) 
OOCBNOLWNBKNDY-UHFFFAOYSA-N

>  <alias>  (236) 
CC(C)c1cccc(NC(=O)c2ccn3ccnc3c2)n1

>  <tags>  (236) 
{'openbind_xx01zvns2b_c1_knitwork_pure', 'fragmenstein_placed'}

>  <HIPPO Pose ID>  (236) 
41964

>  <ref_pdb>  (236) 
41

>  <smiles>  (236) 
C48447-P22

>  <fragmenstein_runtime>  (236) 
3.216551

>  <fragmenstein_outcome>  (236) 
acceptable

>  <fragmenstein_mode>  (236) 
expansion

>  <fragmenstein_error>  (236) 


>  <HIPPO Compound ID>  (236) 
116770

>  <Energy>  (236) 
17.22641

>  <scratch_subdir>  (236) 
/opt/xchem-fragalysis-2/maxwin/BulkDock/SCRATCH/511031/C48447-P22

$$$$
CC1=CC(=O)C(=CNc2ccc3[nH]c(-c4cccnc4)nc3c2)C(=O)O1
     RDKit          3D

 26 29  0  0  0  0  0  0  0  0999 V2000
   -0.7669    6.6252  -22.1246 C   0  0  0  0  0  0  0  0  0  0  0  0
   -1.9834    6.2720  -21.3278 C   0  0  0  0  0  0  0  0  0  0  0  0
   -1.9384    5.5737  -20.1923 C   0  0  0  0  0  0  0  0  0  0  0  0
   -3.1779    5.2624  -19.4803 C   0  0  0  0  0  0  0  0  0  0  0  0
   -3.1256    4.5633  -18.4722 O   0  0  0  0  0  0  0  0  0  0  0  0
   -4.4199    5.8534  -20.0292 C   0  0  0  0  0  0  0  0  0  0  0  0
   -5.5812    5.6397  -19.3838 C   0  0  0  0  0  0  0  0  0  0  0  0
   -5.7393    4.8788  -18.2605 N   0  0  0  0  0  0  0  0  0  0  0  0
   -6.7779    4.8805  -17.3250 C   0  0  0  0  0  0  0  0  0  0  0  0
   -8.0809    4.4778  -17.6270 C   0  0  0  0  0  0  0  0  0  0  0  0
   -9.0085    4.2193  -16.6003 C   0  0  0  0  0  0  0  0  0  0  0  0
   -8.5637    4.4123  -15.2841 C   0  0  0  0  0  0  0  0  0  0  0  0
   -9.0573    4.0850  -14.0438 N   0  0  0  0  0  0  0  0  0  0  0  0
   -8.1718    4.5008  -13.0712 C   0  0  0  0  0  0  0  0  0  0  0  0
   -8.3153    4.2561  -11.6399 C   0  0  0  0  0  0  0  0  0  0  0  0
   -8.6330    3.0028  -11.1162 C   0  0  0  0  0  0  0  0  0  0  0  0
   -8.6888    2.8184   -9.7353 C   0  0  0  0  0  0  0  0  0  0  0  0
   -8.4330    3.9038   -8.9148 C   0  0  0  0  0  0  0  0  0  0  0  0
   -8.1290    5.1396   -9.3721 N   0  0  0  0  0  0  0  0  0  0  0  0
   -8.0601    5.2740  -10.7231 C   0  0  0  0  0  0  0  0  0  0  0  0
   -7.1609    5.1298  -13.6333 N   0  0  0  0  0  0  0  0  0  0  0  0
   -7.3318    4.9669  -14.9825 C   0  0  0  0  0  0  0  0  0  0  0  0
   -6.4307    5.2214  -16.0107 C   0  0  0  0  0  0  0  0  0  0  0  0
   -4.3997    6.6931  -21.2386 C   0  0  0  0  0  0  0  0  0  0  0  0
   -5.3555    7.3423  -21.6464 O   0  0  0  0  0  0  0  0  0  0  0  0
   -3.1928    6.7367  -21.8899 O   0  0  0  0  0  0  0  0  0  0  0  0
  1  2  1  0
  2  3  2  0
  3  4  1  0
  4  5  2  0
  4  6  1  0
  6  7  2  3
  7  8  1  0
  8  9  1  0
  9 10  2  0
 10 11  1  0
 11 12  2  0
 12 13  1  0
 13 14  1  0
 14 15  1  0
 15 16  2  0
 16 17  1  0
 17 18  2  0
 18 19  1  0
 19 20  2  0
 14 21  2  0
 21 22  1  0
 22 23  2  0
  6 24  1  0
 24 25  2  0
 24 26  1  0
 26  2  1  0
 23  9  1  0
 22 12  1  0
 20 15  1  0
M  END
>  <inchikey>  (237) 
OIGAKRIGGLXSOW-UHFFFAOYSA-N

>  <alias>  (237) 
CC1=CC(=O)C(=CNc2ccc3[nH]c(-c4cccnc4)nc3c2)C(=O)O1

>  <tags>  (237) 
{'openbind_xx01zvns2b_c1_knitwork_pure', 'fragmenstein_placed'}

>  <HIPPO Pose ID>  (237) 
42029

>  <ref_pdb>  (237) 
41

>  <smiles>  (237) 
C12442-P145

>  <fragmenstein_runtime>  (237) 
4.703509

>  <fragmenstein_outcome>  (237) 
acceptable

>  <fragmenstein_mode>  (237) 
expansion

>  <fragmenstein_error>  (237) 


>  <HIPPO Compound ID>  (237) 
784

>  <Energy>  (237) 
64.82023

>  <scratch_subdir>  (237) 
/opt/xchem-fragalysis-2/maxwin/BulkDock/SCRATCH/511031/C12442-P145

$$$$
CC(C)Cc1cc(NCc2cnn3c2CNCC3)ncn1
     RDKit          3D

 21 23  0  0  0  0  0  0  0  0999 V2000
   -9.0436    4.7826  -19.0247 C   0  0  0  0  0  0  0  0  0  0  0  0
   -9.9172    4.5875  -17.8093 C   0  0  0  0  0  0  0  0  0  0  0  0
  -11.0611    3.7083  -18.2036 C   0  0  0  0  0  0  0  0  0  0  0  0
   -9.1612    3.9190  -16.6825 C   0  0  0  0  0  0  0  0  0  0  0  0
   -8.1906    4.7651  -15.9274 C   0  0  0  0  0  0  0  0  0  0  0  0
   -8.3918    4.9553  -14.5753 C   0  0  0  0  0  0  0  0  0  0  0  0
   -7.4091    5.6072  -13.8672 C   0  0  0  0  0  0  0  0  0  0  0  0
   -7.5414    5.8650  -12.4924 N   0  0  0  0  0  0  0  0  0  0  0  0
   -7.8872    4.6984  -11.6683 C   0  0  0  0  0  0  0  0  0  0  0  0
   -8.0896    4.9025  -10.1972 C   0  0  0  0  0  0  0  0  0  0  0  0
   -8.0603    6.0876   -9.4242 C   0  0  0  0  0  0  0  0  0  0  0  0
   -8.2967    5.8740   -8.1225 N   0  0  0  0  0  0  0  0  0  0  0  0
   -8.5186    4.5498   -8.0657 N   0  0  0  0  0  0  0  0  0  0  0  0
   -8.4045    3.9230   -9.2689 C   0  0  0  0  0  0  0  0  0  0  0  0
   -8.6596    2.4664   -9.3990 C   0  0  0  0  0  0  0  0  0  0  0  0
   -8.6536    1.7781   -8.1088 N   0  0  0  0  0  0  0  0  0  0  0  0
   -9.4090    2.4958   -7.0883 C   0  0  0  0  0  0  0  0  0  0  0  0
   -8.8316    3.8827   -6.8168 C   0  0  0  0  0  0  0  0  0  0  0  0
   -6.3086    6.0733  -14.4774 N   0  0  0  0  0  0  0  0  0  0  0  0
   -6.2047    5.8408  -15.7992 C   0  0  0  0  0  0  0  0  0  0  0  0
   -7.0978    5.2115  -16.5668 N   0  0  0  0  0  0  0  0  0  0  0  0
  1  2  1  0
  2  3  1  0
  2  4  1  0
  4  5  1  0
  5  6  2  0
  6  7  1  0
  7  8  1  0
  8  9  1  0
  9 10  1  0
 10 11  1  0
 11 12  2  0
 12 13  1  0
 13 14  1  0
 14 15  1  0
 15 16  1  0
 16 17  1  0
 17 18  1  0
  7 19  2  0
 19 20  1  0
 20 21  2  0
 21  5  1  0
 14 10  2  0
 18 13  1  0
M  END
>  <inchikey>  (238) 
XTZMEVZGAAIOEL-UHFFFAOYSA-N

>  <alias>  (238) 
CC(C)Cc1cc(NCc2cnn3c2CNCC3)ncn1

>  <tags>  (238) 
{'openbind_xx01zvns2b_c1_knitwork_pure', 'fragmenstein_placed'}

>  <HIPPO Pose ID>  (238) 
42162

>  <ref_pdb>  (238) 
41

>  <smiles>  (238) 
C113601-P57

>  <fragmenstein_runtime>  (238) 
2.278959

>  <fragmenstein_outcome>  (238) 
acceptable

>  <fragmenstein_mode>  (238) 
expansion

>  <fragmenstein_error>  (238) 


>  <HIPPO Compound ID>  (238) 
13867

>  <Energy>  (238) 
-47.688167

>  <scratch_subdir>  (238) 
/opt/xchem-fragalysis-2/maxwin/BulkDock/SCRATCH/511031/C113601-P57

$$$$
CC(C)c1cc(NCc2cnn3c2CNCC3)ncn1
     RDKit          3D

 20 22  0  0  0  0  0  0  0  0999 V2000
  -10.7040    4.4549  -17.8027 C   0  0  0  0  0  0  0  0  0  0  0  0
   -9.2576    4.0027  -17.7400 C   0  0  0  0  0  0  0  0  0  0  0  0
   -8.6336    4.3722  -19.0662 C   0  0  0  0  0  0  0  0  0  0  0  0
   -8.4363    4.5299  -16.5733 C   0  0  0  0  0  0  0  0  0  0  0  0
   -8.8494    4.3539  -15.2666 C   0  0  0  0  0  0  0  0  0  0  0  0
   -8.0466    4.8082  -14.2310 C   0  0  0  0  0  0  0  0  0  0  0  0
   -8.5497    4.7026  -12.9064 N   0  0  0  0  0  0  0  0  0  0  0  0
   -7.5768    5.0334  -11.8575 C   0  0  0  0  0  0  0  0  0  0  0  0
   -8.0392    5.0552  -10.4227 C   0  0  0  0  0  0  0  0  0  0  0  0
   -8.1453    6.2027   -9.5907 C   0  0  0  0  0  0  0  0  0  0  0  0
   -8.4530    5.9151   -8.3223 N   0  0  0  0  0  0  0  0  0  0  0  0
   -8.5961    4.5807   -8.3416 N   0  0  0  0  0  0  0  0  0  0  0  0
   -8.3682    4.0152   -9.5659 C   0  0  0  0  0  0  0  0  0  0  0  0
   -8.5108    2.5498   -9.7444 C   0  0  0  0  0  0  0  0  0  0  0  0
   -8.4637    1.8310   -8.4694 N   0  0  0  0  0  0  0  0  0  0  0  0
   -9.3264    2.4274   -7.4575 C   0  0  0  0  0  0  0  0  0  0  0  0
   -8.8879    3.8466   -7.1239 C   0  0  0  0  0  0  0  0  0  0  0  0
   -6.8779    5.4117  -14.4951 N   0  0  0  0  0  0  0  0  0  0  0  0
   -6.5359    5.5209  -15.7887 C   0  0  0  0  0  0  0  0  0  0  0  0
   -7.2589    5.1259  -16.8426 N   0  0  0  0  0  0  0  0  0  0  0  0
  1  2  1  0
  2  3  1  0
  2  4  1  0
  4  5  2  0
  5  6  1  0
  6  7  1  0
  7  8  1  0
  8  9  1  0
  9 10  1  0
 10 11  2  0
 11 12  1  0
 12 13  1  0
 13 14  1  0
 14 15  1  0
 15 16  1  0
 16 17  1  0
  6 18  2  0
 18 19  1  0
 19 20  2  0
 20  4  1  0
 13  9  2  0
 17 12  1  0
M  END
>  <inchikey>  (239) 
NLPSDQPVHSKEDW-UHFFFAOYSA-N

>  <alias>  (239) 
CC(C)c1cc(NCc2cnn3c2CNCC3)ncn1

>  <tags>  (239) 
{'openbind_xx01zvns2b_c1_knitwork_pure', 'fragmenstein_placed'}

>  <HIPPO Pose ID>  (239) 
42163

>  <ref_pdb>  (239) 
41

>  <smiles>  (239) 
C113602-P57

>  <fragmenstein_runtime>  (239) 
1.951549

>  <fragmenstein_outcome>  (239) 
acceptable

>  <fragmenstein_mode>  (239) 
expansion

>  <fragmenstein_error>  (239) 


>  <HIPPO Compound ID>  (239) 
113667

>  <Energy>  (239) 
-48.73155

>  <scratch_subdir>  (239) 
/opt/xchem-fragalysis-2/maxwin/BulkDock/SCRATCH/511031/C113602-P57

$$$$
c1nc(NCc2cnn3c2CNCC3)cc(C2CC2)n1
     RDKit          3D

 20 23  0  0  0  0  0  0  0  0999 V2000
   -6.2989    5.8086  -16.1988 C   0  0  0  0  0  0  0  0  0  0  0  0
   -6.2851    5.7336  -14.8617 N   0  0  0  0  0  0  0  0  0  0  0  0
   -7.2994    5.0744  -14.2870 C   0  0  0  0  0  0  0  0  0  0  0  0
   -7.2196    4.9389  -12.8994 N   0  0  0  0  0  0  0  0  0  0  0  0
   -8.4142    5.2296  -12.1158 C   0  0  0  0  0  0  0  0  0  0  0  0
   -8.3212    5.1917  -10.6191 C   0  0  0  0  0  0  0  0  0  0  0  0
   -8.2664    6.2786   -9.7085 C   0  0  0  0  0  0  0  0  0  0  0  0
   -8.3476    5.9039   -8.4259 N   0  0  0  0  0  0  0  0  0  0  0  0
   -8.4508    4.5637   -8.5081 N   0  0  0  0  0  0  0  0  0  0  0  0
   -8.4026    4.0899   -9.7882 C   0  0  0  0  0  0  0  0  0  0  0  0
   -8.5194    2.6401  -10.0602 C   0  0  0  0  0  0  0  0  0  0  0  0
   -8.2760    1.8683   -8.8490 N   0  0  0  0  0  0  0  0  0  0  0  0
   -9.0722    2.3272   -7.7202 C   0  0  0  0  0  0  0  0  0  0  0  0
   -8.6517    3.7437   -7.3256 C   0  0  0  0  0  0  0  0  0  0  0  0
   -8.3070    4.5098  -15.0528 C   0  0  0  0  0  0  0  0  0  0  0  0
   -8.2489    4.6410  -16.4367 C   0  0  0  0  0  0  0  0  0  0  0  0
   -9.2288    3.9281  -17.3391 C   0  0  0  0  0  0  0  0  0  0  0  0
  -10.5228    4.5057  -17.8366 C   0  0  0  0  0  0  0  0  0  0  0  0
   -9.3710    4.3848  -18.7729 C   0  0  0  0  0  0  0  0  0  0  0  0
   -7.2359    5.3198  -17.0135 N   0  0  0  0  0  0  0  0  0  0  0  0
  1  2  2  0
  2  3  1  0
  3  4  1  0
  4  5  1  0
  5  6  1  0
  6  7  1  0
  7  8  2  0
  8  9  1  0
  9 10  1  0
 10 11  1  0
 11 12  1  0
 12 13  1  0
 13 14  1  0
  3 15  2  0
 15 16  1  0
 16 17  1  0
 17 18  1  0
 18 19  1  0
 16 20  2  0
 20  1  1  0
 10  6  2  0
 19 17  1  0
 14  9  1  0
M  END
>  <inchikey>  (240) 
GBDYWUCPABOSJW-UHFFFAOYSA-N

>  <alias>  (240) 
c1nc(NCc2cnn3c2CNCC3)cc(C2CC2)n1

>  <tags>  (240) 
{'openbind_xx01zvns2b_c1_knitwork_pure', 'fragmenstein_placed'}

>  <HIPPO Pose ID>  (240) 
42164

>  <ref_pdb>  (240) 
41

>  <smiles>  (240) 
C113603-P57

>  <fragmenstein_runtime>  (240) 
1.983714

>  <fragmenstein_outcome>  (240) 
acceptable

>  <fragmenstein_mode>  (240) 
expansion

>  <fragmenstein_error>  (240) 


>  <HIPPO Compound ID>  (240) 
10166

>  <Energy>  (240) 
-50.577935

>  <scratch_subdir>  (240) 
/opt/xchem-fragalysis-2/maxwin/BulkDock/SCRATCH/511031/C113603-P57

$$$$
CC(C)Oc1cc(NCc2cnn3c2CNCC3)ncn1
     RDKit          3D

 21 23  0  0  0  0  0  0  0  0999 V2000
  -10.8613    4.7102  -18.3714 C   0  0  0  0  0  0  0  0  0  0  0  0
   -9.3711    4.5391  -18.2555 C   0  0  0  0  0  0  0  0  0  0  0  0
   -8.8438    3.7303  -19.4039 C   0  0  0  0  0  0  0  0  0  0  0  0
   -9.1506    3.8619  -17.0153 O   0  0  0  0  0  0  0  0  0  0  0  0
   -8.1940    4.4897  -16.2514 C   0  0  0  0  0  0  0  0  0  0  0  0
   -8.4342    4.5970  -14.9006 C   0  0  0  0  0  0  0  0  0  0  0  0
   -7.4855    5.2636  -14.1578 C   0  0  0  0  0  0  0  0  0  0  0  0
   -7.6603    5.5800  -12.8036 N   0  0  0  0  0  0  0  0  0  0  0  0
   -8.0493    4.4831  -11.9100 C   0  0  0  0  0  0  0  0  0  0  0  0
   -8.1821    4.7851  -10.4421 C   0  0  0  0  0  0  0  0  0  0  0  0
   -8.1346    6.0209   -9.7507 C   0  0  0  0  0  0  0  0  0  0  0  0
   -8.3087    5.8954   -8.4274 N   0  0  0  0  0  0  0  0  0  0  0  0
   -8.5111    4.5766   -8.2708 N   0  0  0  0  0  0  0  0  0  0  0  0
   -8.4319    3.8705   -9.4313 C   0  0  0  0  0  0  0  0  0  0  0  0
   -8.6590    2.4063   -9.4492 C   0  0  0  0  0  0  0  0  0  0  0  0
   -8.6290    1.8054   -8.1161 N   0  0  0  0  0  0  0  0  0  0  0  0
   -9.3597    2.5901   -7.1286 C   0  0  0  0  0  0  0  0  0  0  0  0
   -8.7781    3.9933   -6.9701 C   0  0  0  0  0  0  0  0  0  0  0  0
   -6.3675    5.7433  -14.7297 N   0  0  0  0  0  0  0  0  0  0  0  0
   -6.2140    5.5305  -16.0486 C   0  0  0  0  0  0  0  0  0  0  0  0
   -7.0875    4.9373  -16.8591 N   0  0  0  0  0  0  0  0  0  0  0  0
  1  2  1  0
  2  3  1  0
  2  4  1  0
  4  5  1  0
  5  6  2  0
  6  7  1  0
  7  8  1  0
  8  9  1  0
  9 10  1  0
 10 11  1  0
 11 12  2  0
 12 13  1  0
 13 14  1  0
 14 15  1  0
 15 16  1  0
 16 17  1  0
 17 18  1  0
  7 19  2  0
 19 20  1  0
 20 21  2  0
 21  5  1  0
 14 10  2  0
 18 13  1  0
M  END
>  <inchikey>  (241) 
VKPAVKXYZPXIPE-UHFFFAOYSA-N

>  <alias>  (241) 
CC(C)Oc1cc(NCc2cnn3c2CNCC3)ncn1

>  <tags>  (241) 
{'openbind_xx01zvns2b_c1_knitwork_pure', 'fragmenstein_placed'}

>  <HIPPO Pose ID>  (241) 
42165

>  <ref_pdb>  (241) 
41

>  <smiles>  (241) 
C113604-P57

>  <fragmenstein_runtime>  (241) 
2.010457

>  <fragmenstein_outcome>  (241) 
acceptable

>  <fragmenstein_mode>  (241) 
expansion

>  <fragmenstein_error>  (241) 


>  <HIPPO Compound ID>  (241) 
111176

>  <Energy>  (241) 
-73.391191

>  <scratch_subdir>  (241) 
/opt/xchem-fragalysis-2/maxwin/BulkDock/SCRATCH/511031/C113604-P57

$$$$
COCc1cc(N(C)Cc2cnn3c2CNCC3)ncn1
     RDKit          3D

 21 23  0  0  0  0  0  0  0  0999 V2000
  -10.7179    4.5607  -18.6218 C   0  0  0  0  0  0  0  0  0  0  0  0
   -9.9806    4.9233  -17.4811 O   0  0  0  0  0  0  0  0  0  0  0  0
   -8.9678    3.9829  -17.1870 C   0  0  0  0  0  0  0  0  0  0  0  0
   -7.9574    4.5992  -16.2624 C   0  0  0  0  0  0  0  0  0  0  0  0
   -8.0505    4.4480  -14.8816 C   0  0  0  0  0  0  0  0  0  0  0  0
   -7.0426    4.9851  -14.0936 C   0  0  0  0  0  0  0  0  0  0  0  0
   -7.0055    4.7954  -12.6952 N   0  0  0  0  0  0  0  0  0  0  0  0
   -5.8010    5.3162  -12.0547 C   0  0  0  0  0  0  0  0  0  0  0  0
   -8.2737    4.9463  -11.9510 C   0  0  0  0  0  0  0  0  0  0  0  0
   -8.2750    5.0110  -10.4405 C   0  0  0  0  0  0  0  0  0  0  0  0
   -8.1951    6.1722   -9.6269 C   0  0  0  0  0  0  0  0  0  0  0  0
   -8.3006    5.9129   -8.3192 N   0  0  0  0  0  0  0  0  0  0  0  0
   -8.4794    4.5818   -8.2874 N   0  0  0  0  0  0  0  0  0  0  0  0
   -8.4382    3.9898   -9.5167 C   0  0  0  0  0  0  0  0  0  0  0  0
   -8.6385    2.5263   -9.6564 C   0  0  0  0  0  0  0  0  0  0  0  0
   -8.5597    1.8217   -8.3743 N   0  0  0  0  0  0  0  0  0  0  0  0
   -9.2881    2.4976   -7.3089 C   0  0  0  0  0  0  0  0  0  0  0  0
   -8.7202    3.8860   -7.0372 C   0  0  0  0  0  0  0  0  0  0  0  0
   -6.0276    5.6473  -14.6878 N   0  0  0  0  0  0  0  0  0  0  0  0
   -6.0315    5.7565  -16.0246 C   0  0  0  0  0  0  0  0  0  0  0  0
   -6.9523    5.2742  -16.8538 N   0  0  0  0  0  0  0  0  0  0  0  0
  1  2  1  0
  2  3  1  0
  3  4  1  0
  4  5  2  0
  5  6  1  0
  6  7  1  0
  7  8  1  0
  7  9  1  0
  9 10  1  0
 10 11  1  0
 11 12  2  0
 12 13  1  0
 13 14  1  0
 14 15  1  0
 15 16  1  0
 16 17  1  0
 17 18  1  0
  6 19  2  0
 19 20  1  0
 20 21  2  0
 21  4  1  0
 14 10  2  0
 18 13  1  0
M  END
>  <inchikey>  (242) 
ZZVFOIZXDUWBTC-UHFFFAOYSA-N

>  <alias>  (242) 
COCc1cc(N(C)Cc2cnn3c2CNCC3)ncn1

>  <tags>  (242) 
{'openbind_xx01zvns2b_c1_knitwork_pure', 'fragmenstein_placed'}

>  <HIPPO Pose ID>  (242) 
42166

>  <ref_pdb>  (242) 
41

>  <smiles>  (242) 
C113611-P57

>  <fragmenstein_runtime>  (242) 
2.995703

>  <fragmenstein_outcome>  (242) 
acceptable

>  <fragmenstein_mode>  (242) 
expansion

>  <fragmenstein_error>  (242) 


>  <HIPPO Compound ID>  (242) 
13863

>  <Energy>  (242) 
-20.537115

>  <scratch_subdir>  (242) 
/opt/xchem-fragalysis-2/maxwin/BulkDock/SCRATCH/511031/C113611-P57

$$$$
COc1nccc(CSc2cnn3c2CNCC3)n1
     RDKit          3D

 19 21  0  0  0  0  0  0  0  0999 V2000
   -4.2465    5.2030  -17.0005 C   0  0  0  0  0  0  0  0  0  0  0  0
   -5.5151    5.7522  -17.3112 O   0  0  0  0  0  0  0  0  0  0  0  0
   -6.4976    5.2161  -16.5065 C   0  0  0  0  0  0  0  0  0  0  0  0
   -7.6508    4.9775  -17.1387 N   0  0  0  0  0  0  0  0  0  0  0  0
   -8.6468    4.5113  -16.3773 C   0  0  0  0  0  0  0  0  0  0  0  0
   -8.5273    4.3177  -15.0212 C   0  0  0  0  0  0  0  0  0  0  0  0
   -7.3128    4.6297  -14.4314 C   0  0  0  0  0  0  0  0  0  0  0  0
   -7.1523    4.4668  -12.9122 C   0  0  0  0  0  0  0  0  0  0  0  0
   -8.3156    5.5414  -12.0150 S   0  0  0  0  0  0  0  0  0  0  0  0
   -8.1571    5.2466  -10.3034 C   0  0  0  0  0  0  0  0  0  0  0  0
   -8.0201    6.2986   -9.3655 C   0  0  0  0  0  0  0  0  0  0  0  0
   -8.1073    5.8866   -8.0976 N   0  0  0  0  0  0  0  0  0  0  0  0
   -8.3592    4.5730   -8.2295 N   0  0  0  0  0  0  0  0  0  0  0  0
   -8.3401    4.1202   -9.5266 C   0  0  0  0  0  0  0  0  0  0  0  0
   -8.6174    2.6887   -9.8057 C   0  0  0  0  0  0  0  0  0  0  0  0
   -8.5277    1.8640   -8.5961 N   0  0  0  0  0  0  0  0  0  0  0  0
   -9.2569    2.4302   -7.4710 C   0  0  0  0  0  0  0  0  0  0  0  0
   -8.6717    3.7725   -7.0589 C   0  0  0  0  0  0  0  0  0  0  0  0
   -6.2722    5.0862  -15.1759 N   0  0  0  0  0  0  0  0  0  0  0  0
  1  2  1  0
  2  3  1  0
  3  4  2  0
  4  5  1  0
  5  6  2  0
  6  7  1  0
  7  8  1  0
  8  9  1  0
  9 10  1  0
 10 11  1  0
 11 12  2  0
 12 13  1  0
 13 14  1  0
 14 15  1  0
 15 16  1  0
 16 17  1  0
 17 18  1  0
  7 19  2  0
 19  3  1  0
 14 10  2  0
 18 13  1  0
M  END
>  <inchikey>  (243) 
GCFMQBUVZFHEMU-UHFFFAOYSA-N

>  <alias>  (243) 
COc1nccc(CSc2cnn3c2CNCC3)n1

>  <tags>  (243) 
{'openbind_xx01zvns2b_c1_knitwork_pure', 'fragmenstein_placed'}

>  <HIPPO Pose ID>  (243) 
42168

>  <ref_pdb>  (243) 
41

>  <smiles>  (243) 
C113613-P57

>  <fragmenstein_runtime>  (243) 
1.58284

>  <fragmenstein_outcome>  (243) 
acceptable

>  <fragmenstein_mode>  (243) 
expansion

>  <fragmenstein_error>  (243) 


>  <HIPPO Compound ID>  (243) 
1906

>  <Energy>  (243) 
-11.737366

>  <scratch_subdir>  (243) 
/opt/xchem-fragalysis-2/maxwin/BulkDock/SCRATCH/511031/C113613-P57

$$$$
Cc1nccc(CSc2cnn3c2CNCC3)n1
     RDKit          3D

 18 20  0  0  0  0  0  0  0  0999 V2000
   -5.4927    5.8404  -17.5426 C   0  0  0  0  0  0  0  0  0  0  0  0
   -6.6296    5.4479  -16.6519 C   0  0  0  0  0  0  0  0  0  0  0  0
   -7.6407    4.7843  -17.2324 N   0  0  0  0  0  0  0  0  0  0  0  0
   -8.6389    4.3963  -16.4296 C   0  0  0  0  0  0  0  0  0  0  0  0
   -8.6660    4.6639  -15.0830 C   0  0  0  0  0  0  0  0  0  0  0  0
   -7.6192    5.4049  -14.5638 C   0  0  0  0  0  0  0  0  0  0  0  0
   -7.6266    5.7868  -13.0853 C   0  0  0  0  0  0  0  0  0  0  0  0
   -7.5025    4.3262  -12.0323 S   0  0  0  0  0  0  0  0  0  0  0  0
   -7.9851    4.7645  -10.4218 C   0  0  0  0  0  0  0  0  0  0  0  0
   -8.0322    5.9980   -9.7447 C   0  0  0  0  0  0  0  0  0  0  0  0
   -8.3991    5.8704   -8.4572 N   0  0  0  0  0  0  0  0  0  0  0  0
   -8.5739    4.5380   -8.3224 N   0  0  0  0  0  0  0  0  0  0  0  0
   -8.3659    3.8444   -9.4737 C   0  0  0  0  0  0  0  0  0  0  0  0
   -8.5580    2.3801   -9.5250 C   0  0  0  0  0  0  0  0  0  0  0  0
   -8.6001    1.7785   -8.1986 N   0  0  0  0  0  0  0  0  0  0  0  0
   -9.4409    2.4990   -7.2626 C   0  0  0  0  0  0  0  0  0  0  0  0
   -8.9132    3.9224   -7.0513 C   0  0  0  0  0  0  0  0  0  0  0  0
   -6.5912    5.8156  -15.3475 N   0  0  0  0  0  0  0  0  0  0  0  0
  1  2  1  0
  2  3  2  0
  3  4  1  0
  4  5  2  0
  5  6  1  0
  6  7  1  0
  7  8  1  0
  8  9  1  0
  9 10  1  0
 10 11  2  0
 11 12  1  0
 12 13  1  0
 13 14  1  0
 14 15  1  0
 15 16  1  0
 16 17  1  0
  6 18  2  0
 18  2  1  0
 13  9  2  0
 17 12  1  0
M  END
>  <inchikey>  (244) 
KDHVJHHSQHUCIC-UHFFFAOYSA-N

>  <alias>  (244) 
Cc1nccc(CSc2cnn3c2CNCC3)n1

>  <tags>  (244) 
{'openbind_xx01zvns2b_c1_knitwork_pure', 'fragmenstein_placed'}

>  <HIPPO Pose ID>  (244) 
42171

>  <ref_pdb>  (244) 
41

>  <smiles>  (244) 
C113623-P57

>  <fragmenstein_runtime>  (244) 
1.875464

>  <fragmenstein_outcome>  (244) 
acceptable

>  <fragmenstein_mode>  (244) 
expansion

>  <fragmenstein_error>  (244) 


>  <HIPPO Compound ID>  (244) 
2362

>  <Energy>  (244) 
10.077825

>  <scratch_subdir>  (244) 
/opt/xchem-fragalysis-2/maxwin/BulkDock/SCRATCH/511031/C113623-P57

$$$$
O=[N+]([O-])c1cc[n+]([O-])cc1N1CCNCC1
     RDKit          3D

 16 17  0  0  0  0  0  0  0  0999 V2000
  -10.1193    4.9214  -18.2446 O   0  0  0  0  0  0  0  0  0  0  0  0
   -8.9419    4.5684  -18.3797 N   0  0  0  0  0  0  0  0  0  0  0  0
   -8.5082    3.9196  -19.3350 O   0  0  0  0  0  0  0  0  0  0  0  0
   -8.0413    4.8083  -17.2540 C   0  0  0  0  0  0  0  0  0  0  0  0
   -8.4595    4.3277  -16.0086 C   0  0  0  0  0  0  0  0  0  0  0  0
   -7.6089    4.4587  -14.9188 C   0  0  0  0  0  0  0  0  0  0  0  0
   -6.3878    5.0881  -15.0435 N   0  0  0  0  0  0  0  0  0  0  0  0
   -5.5929    5.1749  -14.0641 O   0  0  0  0  0  0  0  0  0  0  0  0
   -6.0341    5.6299  -16.2703 C   0  0  0  0  0  0  0  0  0  0  0  0
   -6.8233    5.4960  -17.4157 C   0  0  0  0  0  0  0  0  0  0  0  0
   -6.3850    5.9908  -18.6351 N   0  0  0  0  0  0  0  0  0  0  0  0
   -5.8727    7.3608  -18.7747 C   0  0  0  0  0  0  0  0  0  0  0  0
   -4.3361    7.4361  -18.8980 C   0  0  0  0  0  0  0  0  0  0  0  0
   -3.7614    6.5016  -19.8831 N   0  0  0  0  0  0  0  0  0  0  0  0
   -4.2122    5.1422  -19.5323 C   0  0  0  0  0  0  0  0  0  0  0  0
   -5.7463    4.9998  -19.5265 C   0  0  0  0  0  0  0  0  0  0  0  0
  1  2  2  0
  2  3  1  0
  2  4  1  0
  4  5  2  0
  5  6  1  0
  6  7  2  0
  7  8  1  0
  7  9  1  0
  9 10  2  0
 10 11  1  0
 11 12  1  0
 12 13  1  0
 13 14  1  0
 14 15  1  0
 15 16  1  0
 10  4  1  0
 16 11  1  0
M  CHG  4   2   1   3  -1   7   1   8  -1
M  END
>  <inchikey>  (245) 
CJWIXDZHSREAOW-UHFFFAOYSA-N

>  <alias>  (245) 
O=[N+]([O-])c1cc[n+]([O-])cc1N1CCNCC1

>  <tags>  (245) 
{'openbind_xx01zvns2b_c1_knitwork_pure', 'fragmenstein_placed'}

>  <HIPPO Pose ID>  (245) 
42384

>  <ref_pdb>  (245) 
41

>  <smiles>  (245) 
C11866-P28

>  <fragmenstein_runtime>  (245) 
1.452263

>  <fragmenstein_outcome>  (245) 
acceptable

>  <fragmenstein_mode>  (245) 
expansion

>  <fragmenstein_error>  (245) 


>  <HIPPO Compound ID>  (245) 
7126

>  <Energy>  (245) 
144.423243

>  <scratch_subdir>  (245) 
/opt/xchem-fragalysis-2/maxwin/BulkDock/SCRATCH/511031/C11866-P28

$$$$
O[n+]1ccccc1N1CCNCC1
     RDKit          3D

 13 14  0  0  0  0  0  0  0  0999 V2000
   -8.7465    4.7195  -18.3617 O   0  0  0  0  0  0  0  0  0  0  0  0
   -7.9772    4.8610  -17.2069 N   0  0  0  0  0  0  0  0  0  0  0  0
   -8.4266    4.3248  -16.0610 C   0  0  0  0  0  0  0  0  0  0  0  0
   -7.6662    4.4239  -14.9075 C   0  0  0  0  0  0  0  0  0  0  0  0
   -6.4671    5.1194  -14.9538 C   0  0  0  0  0  0  0  0  0  0  0  0
   -6.0463    5.6967  -16.1489 C   0  0  0  0  0  0  0  0  0  0  0  0
   -6.8027    5.5376  -17.3175 C   0  0  0  0  0  0  0  0  0  0  0  0
   -6.4254    6.0530  -18.5436 N   0  0  0  0  0  0  0  0  0  0  0  0
   -5.8006    7.3785  -18.6688 C   0  0  0  0  0  0  0  0  0  0  0  0
   -4.2626    7.3281  -18.7951 C   0  0  0  0  0  0  0  0  0  0  0  0
   -3.7651    6.3467  -19.7709 N   0  0  0  0  0  0  0  0  0  0  0  0
   -4.3526    5.0313  -19.4731 C   0  0  0  0  0  0  0  0  0  0  0  0
   -5.8927    5.0490  -19.4859 C   0  0  0  0  0  0  0  0  0  0  0  0
  1  2  1  0
  2  3  2  0
  3  4  1  0
  4  5  2  0
  5  6  1  0
  6  7  2  0
  7  8  1  0
  8  9  1  0
  9 10  1  0
 10 11  1  0
 11 12  1  0
 12 13  1  0
  7  2  1  0
 13  8  1  0
M  CHG  1   2   1
M  END
>  <inchikey>  (246) 
ULPJJDJXTDLXRW-UHFFFAOYSA-N

>  <alias>  (246) 
O[n+]1ccccc1N1CCNCC1

>  <tags>  (246) 
{'openbind_xx01zvns2b_c1_knitwork_pure', 'fragmenstein_placed'}

>  <HIPPO Pose ID>  (246) 
42389

>  <ref_pdb>  (246) 
41

>  <smiles>  (246) 
C11871-P28

>  <fragmenstein_runtime>  (246) 
1.854615

>  <fragmenstein_outcome>  (246) 
acceptable

>  <fragmenstein_mode>  (246) 
expansion

>  <fragmenstein_error>  (246) 


>  <HIPPO Compound ID>  (246) 
117950

>  <Energy>  (246) 
142.454479

>  <scratch_subdir>  (246) 
/opt/xchem-fragalysis-2/maxwin/BulkDock/SCRATCH/511031/C11871-P28

$$$$
[O-][n+]1cc(Br)ccc1N1CCNCC1
     RDKit          3D

 14 15  0  0  0  0  0  0  0  0999 V2000
   -8.2498    4.4811  -17.7142 O   0  0  0  0  0  0  0  0  0  0  0  0
   -7.6559    4.8742  -16.6548 N   0  0  0  0  0  0  0  0  0  0  0  0
   -8.1880    4.5124  -15.4240 C   0  0  0  0  0  0  0  0  0  0  0  0
   -7.5897    4.9009  -14.2319 C   0  0  0  0  0  0  0  0  0  0  0  0
   -8.2611    4.3153  -12.5714 Br  0  0  0  0  0  0  0  0  0  0  0  0
   -6.4705    5.7151  -14.2435 C   0  0  0  0  0  0  0  0  0  0  0  0
   -5.9408    6.1212  -15.4568 C   0  0  0  0  0  0  0  0  0  0  0  0
   -6.4876    5.6789  -16.6785 C   0  0  0  0  0  0  0  0  0  0  0  0
   -5.7214    5.9838  -17.8156 N   0  0  0  0  0  0  0  0  0  0  0  0
   -5.8307    7.3393  -18.3594 C   0  0  0  0  0  0  0  0  0  0  0  0
   -4.5701    7.6339  -19.2116 C   0  0  0  0  0  0  0  0  0  0  0  0
   -4.2824    6.6204  -20.2377 N   0  0  0  0  0  0  0  0  0  0  0  0
   -4.3514    5.2612  -19.6633 C   0  0  0  0  0  0  0  0  0  0  0  0
   -5.6581    4.9816  -18.8833 C   0  0  0  0  0  0  0  0  0  0  0  0
  1  2  1  0
  2  3  2  0
  3  4  1  0
  4  5  1  0
  4  6  2  0
  6  7  1  0
  7  8  2  0
  8  9  1  0
  9 10  1  0
 10 11  1  0
 11 12  1  0
 12 13  1  0
 13 14  1  0
  8  2  1  0
 14  9  1  0
M  CHG  2   1  -1   2   1
M  END
>  <inchikey>  (247) 
WHAFSEFPGSCXMG-UHFFFAOYSA-N

>  <alias>  (247) 
[O-][n+]1cc(Br)ccc1N1CCNCC1

>  <tags>  (247) 
{'openbind_xx01zvns2b_c1_knitwork_pure', 'fragmenstein_placed'}

>  <HIPPO Pose ID>  (247) 
42393

>  <ref_pdb>  (247) 
41

>  <smiles>  (247) 
C11876-P28

>  <fragmenstein_runtime>  (247) 
1.385027

>  <fragmenstein_outcome>  (247) 
acceptable

>  <fragmenstein_mode>  (247) 
expansion

>  <fragmenstein_error>  (247) 


>  <HIPPO Compound ID>  (247) 
1434

>  <Energy>  (247) 
125.53682

>  <scratch_subdir>  (247) 
/opt/xchem-fragalysis-2/maxwin/BulkDock/SCRATCH/511031/C11876-P28

$$$$
COc1ccc(Cl)c2c1[C@@H](NC(C)C)C(=O)N2
     RDKit          3D

 17 18  0  0  0  0  0  0  0  0999 V2000
   -7.4576    6.2930  -13.0535 C   0  0  0  0  0  0  0  0  0  0  0  0
   -7.3406    4.9400  -13.4716 O   0  0  0  0  0  0  0  0  0  0  0  0
   -7.4560    4.8313  -14.8257 C   0  0  0  0  0  0  0  0  0  0  0  0
   -8.6679    4.3811  -15.3602 C   0  0  0  0  0  0  0  0  0  0  0  0
   -8.7889    4.1267  -16.7338 C   0  0  0  0  0  0  0  0  0  0  0  0
   -7.6847    4.2949  -17.5651 C   0  0  0  0  0  0  0  0  0  0  0  0
   -7.7387    3.8316  -19.1965 Cl  0  0  0  0  0  0  0  0  0  0  0  0
   -6.5034    4.7539  -17.0207 C   0  0  0  0  0  0  0  0  0  0  0  0
   -6.3703    5.0192  -15.6643 C   0  0  0  0  0  0  0  0  0  0  0  0
   -4.9518    5.4432  -15.3742 C   0  0  1  0  0  0  0  0  0  0  0  0
   -4.3237    4.6009  -14.3542 N   0  0  0  0  0  0  0  0  0  0  0  0
   -3.0467    5.0828  -13.8308 C   0  0  0  0  0  0  0  0  0  0  0  0
   -3.1480    6.4413  -13.1328 C   0  0  0  0  0  0  0  0  0  0  0  0
   -2.5439    4.0405  -12.8259 C   0  0  0  0  0  0  0  0  0  0  0  0
   -4.2851    5.2834  -16.7822 C   0  0  0  0  0  0  0  0  0  0  0  0
   -3.1139    5.4553  -17.0872 O   0  0  0  0  0  0  0  0  0  0  0  0
   -5.2917    4.9437  -17.6742 N   0  0  0  0  0  0  0  0  0  0  0  0
  1  2  1  0
  2  3  1  0
  3  4  2  0
  4  5  1  0
  5  6  2  0
  6  7  1  0
  6  8  1  0
  8  9  2  0
  9 10  1  0
 10 11  1  1
 11 12  1  0
 12 13  1  0
 12 14  1  0
 10 15  1  0
 15 16  2  0
 15 17  1  0
  9  3  1  0
 17  8  1  0
M  END
>  <inchikey>  (248) 
GHOLZDDWXOUQFJ-UHFFFAOYSA-N

>  <alias>  (248) 
COc1ccc(Cl)c2c1[C@@H](NC(C)C)C(=O)N2

>  <tags>  (248) 
{'openbind_xx01zvns2b_c1_knitwork_pure', 'fragmenstein_placed'}

>  <HIPPO Pose ID>  (248) 
42631

>  <ref_pdb>  (248) 
41

>  <smiles>  (248) 
C114609-P170

>  <fragmenstein_runtime>  (248) 
0.882951

>  <fragmenstein_outcome>  (248) 
acceptable

>  <fragmenstein_mode>  (248) 
expansion

>  <fragmenstein_error>  (248) 


>  <HIPPO Compound ID>  (248) 
5856

>  <Energy>  (248) 
60.524785

>  <scratch_subdir>  (248) 
/opt/xchem-fragalysis-2/maxwin/BulkDock/SCRATCH/511031/C114609-P170

$$$$
C[C@@H](Cn1cccn1)Nc1nc2c(c(C(F)(F)F)n1)CCCC2
     RDKit          3D

 23 25  0  0  0  0  0  0  0  0999 V2000
   -1.5339    4.6534  -19.8011 C   0  0  0  0  0  0  0  0  0  0  0  0
   -2.6201    5.5313  -19.1792 C   0  0  1  0  0  0  0  0  0  0  0  0
   -2.4655    6.9874  -19.6269 C   0  0  0  0  0  0  0  0  0  0  0  0
   -3.1697    7.9250  -18.7703 N   0  0  0  0  0  0  0  0  0  0  0  0
   -4.4690    8.3376  -18.8873 C   0  0  0  0  0  0  0  0  0  0  0  0
   -4.6697    9.2507  -17.8793 C   0  0  0  0  0  0  0  0  0  0  0  0
   -3.4267    9.3405  -17.2270 C   0  0  0  0  0  0  0  0  0  0  0  0
   -2.5030    8.5532  -17.7817 N   0  0  0  0  0  0  0  0  0  0  0  0
   -3.9063    4.9736  -19.5863 N   0  0  0  0  0  0  0  0  0  0  0  0
   -4.8934    4.8998  -18.6271 C   0  0  0  0  0  0  0  0  0  0  0  0
   -6.1397    4.7886  -19.0676 N   0  0  0  0  0  0  0  0  0  0  0  0
   -7.1189    4.6151  -18.1582 C   0  0  0  0  0  0  0  0  0  0  0  0
   -6.8726    4.6233  -16.7959 C   0  0  0  0  0  0  0  0  0  0  0  0
   -5.5444    4.7901  -16.4250 C   0  0  0  0  0  0  0  0  0  0  0  0
   -5.1252    4.7848  -14.9696 C   0  0  0  0  0  0  0  0  0  0  0  0
   -5.6837    5.8093  -14.2573 F   0  0  0  0  0  0  0  0  0  0  0  0
   -5.4853    3.6427  -14.3115 F   0  0  0  0  0  0  0  0  0  0  0  0
   -3.7790    4.9003  -14.7711 F   0  0  0  0  0  0  0  0  0  0  0  0
   -4.5623    4.9239  -17.3412 N   0  0  0  0  0  0  0  0  0  0  0  0
   -7.9379    4.3511  -15.7837 C   0  0  0  0  0  0  0  0  0  0  0  0
   -9.3482    4.3739  -16.3350 C   0  0  0  0  0  0  0  0  0  0  0  0
   -9.4913    3.8258  -17.7407 C   0  0  0  0  0  0  0  0  0  0  0  0
   -8.5004    4.4301  -18.7179 C   0  0  0  0  0  0  0  0  0  0  0  0
  2  1  1  6
  2  3  1  0
  3  4  1  0
  4  5  1  0
  5  6  2  0
  6  7  1  0
  7  8  2  0
  2  9  1  0
  9 10  1  0
 10 11  2  0
 11 12  1  0
 12 13  2  0
 13 14  1  0
 14 15  1  0
 15 16  1  0
 15 17  1  0
 15 18  1  0
 14 19  2  0
 13 20  1  0
 20 21  1  0
 21 22  1  0
 22 23  1  0
  8  4  1  0
 19 10  1  0
 23 12  1  0
M  END
>  <inchikey>  (249) 
XJWGXDPEAGKMQA-UHFFFAOYSA-N

>  <alias>  (249) 
C[C@@H](Cn1cccn1)Nc1nc2c(c(C(F)(F)F)n1)CCCC2

>  <tags>  (249) 
{'openbind_xx01zvns2b_c1_knitwork_pure', 'fragmenstein_placed'}

>  <HIPPO Pose ID>  (249) 
42682

>  <ref_pdb>  (249) 
41

>  <smiles>  (249) 
C114658-P7

>  <fragmenstein_runtime>  (249) 
3.892524

>  <fragmenstein_outcome>  (249) 
acceptable

>  <fragmenstein_mode>  (249) 
expansion

>  <fragmenstein_error>  (249) 


>  <HIPPO Compound ID>  (249) 
4933

>  <Energy>  (249) 
-13.042236

>  <scratch_subdir>  (249) 
/opt/xchem-fragalysis-2/maxwin/BulkDock/SCRATCH/511031/C114658-P7

$$$$
c1cc(N2CCN(CCCc3cn[nH]c3)CC2)c2nc[nH]c2c1
     RDKit          3D

 23 26  0  0  0  0  0  0  0  0999 V2000
   -9.5127    3.9352  -17.8751 C   0  0  0  0  0  0  0  0  0  0  0  0
   -9.1514    4.2104  -16.5597 C   0  0  0  0  0  0  0  0  0  0  0  0
   -7.8975    4.7499  -16.1687 C   0  0  0  0  0  0  0  0  0  0  0  0
   -7.7139    5.0716  -14.8082 N   0  0  0  0  0  0  0  0  0  0  0  0
   -8.1688    4.0343  -13.8610 C   0  0  0  0  0  0  0  0  0  0  0  0
   -7.5179    4.1471  -12.4743 C   0  0  0  0  0  0  0  0  0  0  0  0
   -7.5478    5.5427  -12.0044 N   0  0  0  0  0  0  0  0  0  0  0  0
   -7.1205    5.6605  -10.6068 C   0  0  0  0  0  0  0  0  0  0  0  0
   -8.1594    5.0833   -9.6355 C   0  0  0  0  0  0  0  0  0  0  0  0
   -7.5689    4.1381   -8.5927 C   0  0  0  0  0  0  0  0  0  0  0  0
   -6.7639    4.8114   -7.5337 C   0  0  0  0  0  0  0  0  0  0  0  0
   -5.3659    4.7413   -7.3408 C   0  0  0  0  0  0  0  0  0  0  0  0
   -4.9681    5.3309   -6.2085 N   0  0  0  0  0  0  0  0  0  0  0  0
   -6.1034    5.8716   -5.7283 N   0  0  0  0  0  0  0  0  0  0  0  0
   -7.2055    5.5717   -6.4722 C   0  0  0  0  0  0  0  0  0  0  0  0
   -6.7308    6.3767  -12.9243 C   0  0  0  0  0  0  0  0  0  0  0  0
   -6.5434    5.8367  -14.3831 C   0  0  0  0  0  0  0  0  0  0  0  0
   -6.9826    4.9629  -17.2407 C   0  0  0  0  0  0  0  0  0  0  0  0
   -5.6826    5.4570  -17.2457 N   0  0  0  0  0  0  0  0  0  0  0  0
   -5.3060    5.4479  -18.5052 C   0  0  0  0  0  0  0  0  0  0  0  0
   -6.2914    4.9923  -19.3291 N   0  0  0  0  0  0  0  0  0  0  0  0
   -7.3670    4.6593  -18.5472 C   0  0  0  0  0  0  0  0  0  0  0  0
   -8.6143    4.1527  -18.9022 C   0  0  0  0  0  0  0  0  0  0  0  0
  1  2  2  0
  2  3  1  0
  3  4  1  0
  4  5  1  0
  5  6  1  0
  6  7  1  0
  7  8  1  0
  8  9  1  0
  9 10  1  0
 10 11  1  0
 11 12  1  0
 12 13  2  0
 13 14  1  0
 14 15  1  0
  7 16  1  0
 16 17  1  0
  3 18  2  0
 18 19  1  0
 19 20  2  0
 20 21  1  0
 21 22  1  0
 22 23  2  0
 23  1  1  0
 17  4  1  0
 22 18  1  0
 15 11  2  0
M  END
>  <inchikey>  (250) 
CZJDOJCMYBSJAA-UHFFFAOYSA-N

>  <alias>  (250) 
c1cc(N2CCN(CCCc3cn[nH]c3)CC2)c2nc[nH]c2c1

>  <tags>  (250) 
{'openbind_xx01zvns2b_c1_knitwork_pure', 'fragmenstein_placed'}

>  <HIPPO Pose ID>  (250) 
42714

>  <ref_pdb>  (250) 
41

>  <smiles>  (250) 
C7295-P7

>  <fragmenstein_runtime>  (250) 
5.898242

>  <fragmenstein_outcome>  (250) 
acceptable

>  <fragmenstein_mode>  (250) 
expansion

>  <fragmenstein_error>  (250) 


>  <HIPPO Compound ID>  (250) 
5381

>  <Energy>  (250) 
131.854435

>  <scratch_subdir>  (250) 
/opt/xchem-fragalysis-2/maxwin/BulkDock/SCRATCH/511031/C7295-P7

$$$$
Cn1ccc(NC(=O)Cn2ncc3cccnc32)n1
     RDKit          3D

 19 21  0  0  0  0  0  0  0  0999 V2000
   -7.4012    4.1164   -8.9494 C   0  0  0  0  0  0  0  0  0  0  0  0
   -7.5253    4.2260  -10.3818 N   0  0  0  0  0  0  0  0  0  0  0  0
   -8.4365    3.5888  -11.1639 C   0  0  0  0  0  0  0  0  0  0  0  0
   -8.1505    3.9698  -12.4502 C   0  0  0  0  0  0  0  0  0  0  0  0
   -7.0221    4.8100  -12.3499 C   0  0  0  0  0  0  0  0  0  0  0  0
   -6.4082    5.3511  -13.4401 N   0  0  0  0  0  0  0  0  0  0  0  0
   -5.1001    6.1867  -13.5525 C   0  0  0  0  0  0  0  0  0  0  0  0
   -4.3091    6.4724  -12.7364 O   0  0  0  0  0  0  0  0  0  0  0  0
   -4.9807    6.7494  -14.9644 C   0  0  0  0  0  0  0  0  0  0  0  0
   -5.0512    5.8230  -16.0856 N   0  0  0  0  0  0  0  0  0  0  0  0
   -4.0032    5.7121  -16.9461 N   0  0  0  0  0  0  0  0  0  0  0  0
   -4.5369    5.1133  -18.0193 C   0  0  0  0  0  0  0  0  0  0  0  0
   -5.9164    4.8653  -17.8796 C   0  0  0  0  0  0  0  0  0  0  0  0
   -6.9606    4.3452  -18.6526 C   0  0  0  0  0  0  0  0  0  0  0  0
   -8.2189    4.2565  -18.0568 C   0  0  0  0  0  0  0  0  0  0  0  0
   -8.3802    4.7019  -16.7520 C   0  0  0  0  0  0  0  0  0  0  0  0
   -7.4204    5.2832  -15.9885 N   0  0  0  0  0  0  0  0  0  0  0  0
   -6.2167    5.3092  -16.6030 C   0  0  0  0  0  0  0  0  0  0  0  0
   -6.6768    5.0128  -11.0771 N   0  0  0  0  0  0  0  0  0  0  0  0
  1  2  1  0
  2  3  1  0
  3  4  2  0
  4  5  1  0
  5  6  1  0
  6  7  1  0
  7  8  2  0
  7  9  1  0
  9 10  1  0
 10 11  1  0
 11 12  2  0
 12 13  1  0
 13 14  2  0
 14 15  1  0
 15 16  2  0
 16 17  1  0
 17 18  2  0
  5 19  2  0
 19  2  1  0
 18 10  1  0
 18 13  1  0
M  END
>  <inchikey>  (251) 
LUQVHROTOVUSHR-UHFFFAOYSA-N

>  <alias>  (251) 
Cn1ccc(NC(=O)Cn2ncc3cccnc32)n1

>  <tags>  (251) 
{'openbind_xx01zvns2b_c1_knitwork_pure', 'fragmenstein_placed'}

>  <HIPPO Pose ID>  (251) 
42784

>  <ref_pdb>  (251) 
41

>  <smiles>  (251) 
C114823-P65

>  <fragmenstein_runtime>  (251) 
1.646356

>  <fragmenstein_outcome>  (251) 
acceptable

>  <fragmenstein_mode>  (251) 
expansion

>  <fragmenstein_error>  (251) 


>  <HIPPO Compound ID>  (251) 
117262

>  <Energy>  (251) 
24.062943

>  <scratch_subdir>  (251) 
/opt/xchem-fragalysis-2/maxwin/BulkDock/SCRATCH/511031/C114823-P65

$$$$
COc1cnc2ccccc2c1C(=O)N[C@@H]1CCCNC1
     RDKit          3D

 21 23  0  0  0  0  0  0  0  0999 V2000
  -20.1134    9.7621    0.1759 C   0  0  0  0  0  0  0  0  0  0  0  0
  -19.3109    8.6007    0.3440 O   0  0  0  0  0  0  0  0  0  0  0  0
  -19.9323    7.3855    0.3036 C   0  0  0  0  0  0  0  0  0  0  0  0
  -21.3018    7.1961    0.2818 C   0  0  0  0  0  0  0  0  0  0  0  0
  -21.9051    5.9866    0.2845 N   0  0  0  0  0  0  0  0  0  0  0  0
  -21.1432    4.8869    0.2994 C   0  0  0  0  0  0  0  0  0  0  0  0
  -21.7890    3.6584    0.3324 C   0  0  0  0  0  0  0  0  0  0  0  0
  -21.0857    2.4548    0.3692 C   0  0  0  0  0  0  0  0  0  0  0  0
  -19.7006    2.4723    0.3617 C   0  0  0  0  0  0  0  0  0  0  0  0
  -19.0319    3.6950    0.3235 C   0  0  0  0  0  0  0  0  0  0  0  0
  -19.7350    4.9310    0.2968 C   0  0  0  0  0  0  0  0  0  0  0  0
  -19.1382    6.2270    0.3024 C   0  0  0  0  0  0  0  0  0  0  0  0
  -17.6405    6.3477    0.2601 C   0  0  0  0  0  0  0  0  0  0  0  0
  -17.0547    5.6969   -0.5087 O   0  0  0  0  0  0  0  0  0  0  0  0
  -17.1299    7.3085    1.3460 N   0  0  0  0  0  0  0  0  0  0  0  0
  -15.7891    7.7471    1.6558 C   0  0  2  0  0  0  0  0  0  0  0  0
  -15.7308    8.4683    3.0053 C   0  0  0  0  0  0  0  0  0  0  0  0
  -14.5096    9.3819    3.1304 C   0  0  0  0  0  0  0  0  0  0  0  0
  -13.3998    8.9972    2.1572 C   0  0  0  0  0  0  0  0  0  0  0  0
  -13.8312    9.0907    0.7631 N   0  0  0  0  0  0  0  0  0  0  0  0
  -15.2106    8.6342    0.5347 C   0  0  0  0  0  0  0  0  0  0  0  0
  1  2  1  0
  2  3  1  0
  3  4  2  0
  4  5  1  0
  5  6  2  0
  6  7  1  0
  7  8  2  0
  8  9  1  0
  9 10  2  0
 10 11  1  0
 11 12  2  0
 12 13  1  0
 13 14  2  0
 13 15  1  0
 16 15  1  6
 16 17  1  0
 17 18  1  0
 18 19  1  0
 19 20  1  0
 20 21  1  0
 12  3  1  0
 21 16  1  0
 11  6  1  0
M  END
>  <inchikey>  (252) 
AJDDETPRQRIHBT-UHFFFAOYSA-N

>  <alias>  (252) 
COc1cnc2ccccc2c1C(=O)N[C@@H]1CCCNC1

>  <tags>  (252) 
{'openbind_xx01zvns2b_c1_knitwork_pure', 'fragmenstein_placed'}

>  <HIPPO Pose ID>  (252) 
42790

>  <ref_pdb>  (252) 
41

>  <smiles>  (252) 
C15214-P38

>  <fragmenstein_runtime>  (252) 
2.798288

>  <fragmenstein_outcome>  (252) 
acceptable

>  <fragmenstein_mode>  (252) 
expansion

>  <fragmenstein_error>  (252) 


>  <HIPPO Compound ID>  (252) 
50975

>  <Energy>  (252) 
78.683758

>  <scratch_subdir>  (252) 
/opt/xchem-fragalysis-2/maxwin/BulkDock/SCRATCH/511031/C15214-P38

$$$$
c1ccc2nc(N[C@H]3CCCNC3)ccc2c1
     RDKit          3D

 17 19  0  0  0  0  0  0  0  0999 V2000
  -19.7933    2.6241    0.2992 C   0  0  0  0  0  0  0  0  0  0  0  0
  -21.1557    2.6346    0.5767 C   0  0  0  0  0  0  0  0  0  0  0  0
  -21.8429    3.8513    0.6598 C   0  0  0  0  0  0  0  0  0  0  0  0
  -21.2033    5.0704    0.4724 C   0  0  0  0  0  0  0  0  0  0  0  0
  -21.9095    6.2152    0.5603 N   0  0  0  0  0  0  0  0  0  0  0  0
  -21.2865    7.3908    0.3397 C   0  0  0  0  0  0  0  0  0  0  0  0
  -21.9873    8.6076    0.3357 N   0  0  0  0  0  0  0  0  0  0  0  0
  -23.3773    8.5901    0.8130 C   0  0  1  0  0  0  0  0  0  0  0  0
  -23.3985    8.9109    2.3133 C   0  0  0  0  0  0  0  0  0  0  0  0
  -23.0467   10.3761    2.5762 C   0  0  0  0  0  0  0  0  0  0  0  0
  -23.9250   11.3221    1.7588 C   0  0  0  0  0  0  0  0  0  0  0  0
  -23.8600   11.0451    0.3224 N   0  0  0  0  0  0  0  0  0  0  0  0
  -24.2265    9.6443    0.0481 C   0  0  0  0  0  0  0  0  0  0  0  0
  -19.9250    7.4483    0.0675 C   0  0  0  0  0  0  0  0  0  0  0  0
  -19.1846    6.2730   -0.0024 C   0  0  0  0  0  0  0  0  0  0  0  0
  -19.8232    5.0485    0.1859 C   0  0  0  0  0  0  0  0  0  0  0  0
  -19.1256    3.8294    0.0987 C   0  0  0  0  0  0  0  0  0  0  0  0
  1  2  2  0
  2  3  1  0
  3  4  2  0
  4  5  1  0
  5  6  2  0
  6  7  1  0
  8  7  1  6
  8  9  1  0
  9 10  1  0
 10 11  1  0
 11 12  1  0
 12 13  1  0
  6 14  1  0
 14 15  2  0
 15 16  1  0
 16 17  2  0
 17  1  1  0
 16  4  1  0
 13  8  1  0
M  END
>  <inchikey>  (253) 
SPULGHVSZDSTRT-UHFFFAOYSA-N

>  <alias>  (253) 
c1ccc2nc(N[C@H]3CCCNC3)ccc2c1

>  <tags>  (253) 
{'openbind_xx01zvns2b_c1_knitwork_pure', 'fragmenstein_placed'}

>  <HIPPO Pose ID>  (253) 
42791

>  <ref_pdb>  (253) 
41

>  <smiles>  (253) 
C15219-P38

>  <fragmenstein_runtime>  (253) 
2.110318

>  <fragmenstein_outcome>  (253) 
acceptable

>  <fragmenstein_mode>  (253) 
expansion

>  <fragmenstein_error>  (253) 


>  <HIPPO Compound ID>  (253) 
1728

>  <Energy>  (253) 
16.834822

>  <scratch_subdir>  (253) 
/opt/xchem-fragalysis-2/maxwin/BulkDock/SCRATCH/511031/C15219-P38

$$$$
Clc1cccc2nc(N[C@H]3CCCNC3)ccc12
     RDKit          3D

 18 20  0  0  0  0  0  0  0  0999 V2000
  -17.3499    3.7700    0.0112 Cl  0  0  0  0  0  0  0  0  0  0  0  0
  -19.0716    3.7609    0.1870 C   0  0  0  0  0  0  0  0  0  0  0  0
  -19.6890    2.5148    0.3054 C   0  0  0  0  0  0  0  0  0  0  0  0
  -21.0650    2.4453    0.4733 C   0  0  0  0  0  0  0  0  0  0  0  0
  -21.8116    3.6224    0.5306 C   0  0  0  0  0  0  0  0  0  0  0  0
  -21.2204    4.8746    0.4299 C   0  0  0  0  0  0  0  0  0  0  0  0
  -22.0124    5.9539    0.5309 N   0  0  0  0  0  0  0  0  0  0  0  0
  -21.4665    7.1804    0.4662 C   0  0  0  0  0  0  0  0  0  0  0  0
  -22.3563    8.2376    0.6234 N   0  0  0  0  0  0  0  0  0  0  0  0
  -22.0936    9.1429    1.7448 C   0  0  1  0  0  0  0  0  0  0  0  0
  -23.0314   10.3521    1.6057 C   0  0  0  0  0  0  0  0  0  0  0  0
  -22.9230   11.2712    2.8195 C   0  0  0  0  0  0  0  0  0  0  0  0
  -23.1388   10.5008    4.1205 C   0  0  0  0  0  0  0  0  0  0  0  0
  -22.2013    9.3851    4.2552 N   0  0  0  0  0  0  0  0  0  0  0  0
  -22.3239    8.4587    3.1172 C   0  0  0  0  0  0  0  0  0  0  0  0
  -20.1137    7.3721    0.2552 C   0  0  0  0  0  0  0  0  0  0  0  0
  -19.2875    6.2577    0.1426 C   0  0  0  0  0  0  0  0  0  0  0  0
  -19.8258    4.9598    0.2442 C   0  0  0  0  0  0  0  0  0  0  0  0
  1  2  1  0
  2  3  2  0
  3  4  1  0
  4  5  2  0
  5  6  1  0
  6  7  2  0
  7  8  1  0
  8  9  1  0
 10  9  1  6
 10 11  1  0
 11 12  1  0
 12 13  1  0
 13 14  1  0
 14 15  1  0
  8 16  2  0
 16 17  1  0
 17 18  2  0
 18  2  1  0
 18  6  1  0
 15 10  1  0
M  END
>  <inchikey>  (254) 
KTCRFVFIXZUHJX-UHFFFAOYSA-N

>  <alias>  (254) 
Clc1cccc2nc(N[C@H]3CCCNC3)ccc12

>  <tags>  (254) 
{'openbind_xx01zvns2b_c1_knitwork_pure', 'fragmenstein_placed'}

>  <HIPPO Pose ID>  (254) 
42792

>  <ref_pdb>  (254) 
41

>  <smiles>  (254) 
C15221-P38

>  <fragmenstein_runtime>  (254) 
1.703878

>  <fragmenstein_outcome>  (254) 
acceptable

>  <fragmenstein_mode>  (254) 
expansion

>  <fragmenstein_error>  (254) 


>  <HIPPO Compound ID>  (254) 
17250

>  <Energy>  (254) 
14.848195

>  <scratch_subdir>  (254) 
/opt/xchem-fragalysis-2/maxwin/BulkDock/SCRATCH/511031/C15221-P38

$$$$
Brc1ccc2ccc(N[C@H]3CCCNC3)nc2c1
     RDKit          3D

 18 20  0  0  0  0  0  0  0  0999 V2000
  -21.9638    0.9464    1.1889 Br  0  0  0  0  0  0  0  0  0  0  0  0
  -21.1016    2.5671    0.7366 C   0  0  0  0  0  0  0  0  0  0  0  0
  -19.7638    2.5598    0.3538 C   0  0  0  0  0  0  0  0  0  0  0  0
  -19.1274    3.7688    0.0788 C   0  0  0  0  0  0  0  0  0  0  0  0
  -19.8306    4.9803    0.2078 C   0  0  0  0  0  0  0  0  0  0  0  0
  -19.2196    6.2184   -0.0026 C   0  0  0  0  0  0  0  0  0  0  0  0
  -19.9576    7.3860    0.1668 C   0  0  0  0  0  0  0  0  0  0  0  0
  -21.2907    7.2936    0.5354 C   0  0  0  0  0  0  0  0  0  0  0  0
  -22.0739    8.4331    0.7251 N   0  0  0  0  0  0  0  0  0  0  0  0
  -21.6830    9.2598    1.8787 C   0  0  1  0  0  0  0  0  0  0  0  0
  -22.1826   10.6927    1.6325 C   0  0  0  0  0  0  0  0  0  0  0  0
  -23.7073   10.7902    1.7204 C   0  0  0  0  0  0  0  0  0  0  0  0
  -24.2430   10.1590    3.0045 C   0  0  0  0  0  0  0  0  0  0  0  0
  -23.7834    8.7810    3.1591 N   0  0  0  0  0  0  0  0  0  0  0  0
  -22.3138    8.7088    3.1828 C   0  0  0  0  0  0  0  0  0  0  0  0
  -21.9010    6.1109    0.7252 N   0  0  0  0  0  0  0  0  0  0  0  0
  -21.1916    4.9805    0.5789 C   0  0  0  0  0  0  0  0  0  0  0  0
  -21.8085    3.7653    0.8284 C   0  0  0  0  0  0  0  0  0  0  0  0
  1  2  1  0
  2  3  2  0
  3  4  1  0
  4  5  2  0
  5  6  1  0
  6  7  2  0
  7  8  1  0
  8  9  1  0
 10  9  1  6
 10 11  1  0
 11 12  1  0
 12 13  1  0
 13 14  1  0
 14 15  1  0
  8 16  2  0
 16 17  1  0
 17 18  2  0
 18  2  1  0
 17  5  1  0
 15 10  1  0
M  END
>  <inchikey>  (255) 
ZSKRPIHLDOVWJV-UHFFFAOYSA-N

>  <alias>  (255) 
Brc1ccc2ccc(N[C@H]3CCCNC3)nc2c1

>  <tags>  (255) 
{'openbind_xx01zvns2b_c1_knitwork_pure', 'fragmenstein_placed'}

>  <HIPPO Pose ID>  (255) 
42793

>  <ref_pdb>  (255) 
41

>  <smiles>  (255) 
C15222-P38

>  <fragmenstein_runtime>  (255) 
1.702097

>  <fragmenstein_outcome>  (255) 
acceptable

>  <fragmenstein_mode>  (255) 
expansion

>  <fragmenstein_error>  (255) 


>  <HIPPO Compound ID>  (255) 
113775

>  <Energy>  (255) 
3.699724

>  <scratch_subdir>  (255) 
/opt/xchem-fragalysis-2/maxwin/BulkDock/SCRATCH/511031/C15222-P38

$$$$
N#Cc1cc(N[C@H]2CCCNC2)nc2ccccc12
     RDKit          3D

 19 21  0  0  0  0  0  0  0  0999 V2000
  -16.6169    6.2722   -0.1730 N   0  0  0  0  0  0  0  0  0  0  0  0
  -17.7640    6.3001    0.0123 C   0  0  0  0  0  0  0  0  0  0  0  0
  -19.1821    6.2220    0.2064 C   0  0  0  0  0  0  0  0  0  0  0  0
  -19.9057    7.4002    0.3954 C   0  0  0  0  0  0  0  0  0  0  0  0
  -21.2677    7.3164    0.6084 C   0  0  0  0  0  0  0  0  0  0  0  0
  -22.0660    8.4010    0.9252 N   0  0  0  0  0  0  0  0  0  0  0  0
  -21.8829    9.6797    0.2249 C   0  0  1  0  0  0  0  0  0  0  0  0
  -23.2496   10.2173   -0.2356 C   0  0  0  0  0  0  0  0  0  0  0  0
  -24.1187   10.6654    0.9415 C   0  0  0  0  0  0  0  0  0  0  0  0
  -23.3622   11.6047    1.8797 C   0  0  0  0  0  0  0  0  0  0  0  0
  -22.0939   11.0304    2.3361 N   0  0  0  0  0  0  0  0  0  0  0  0
  -21.2339   10.7091    1.1822 C   0  0  0  0  0  0  0  0  0  0  0  0
  -21.9072    6.1330    0.6224 N   0  0  0  0  0  0  0  0  0  0  0  0
  -21.2187    4.9933    0.4513 C   0  0  0  0  0  0  0  0  0  0  0  0
  -21.9040    3.7868    0.5142 C   0  0  0  0  0  0  0  0  0  0  0  0
  -21.2511    2.5577    0.3955 C   0  0  0  0  0  0  0  0  0  0  0  0
  -19.8792    2.5237    0.1947 C   0  0  0  0  0  0  0  0  0  0  0  0
  -19.1722    3.7191    0.1002 C   0  0  0  0  0  0  0  0  0  0  0  0
  -19.8302    4.9698    0.2378 C   0  0  0  0  0  0  0  0  0  0  0  0
  1  2  3  0
  2  3  1  0
  3  4  2  0
  4  5  1  0
  5  6  1  0
  7  6  1  1
  7  8  1  0
  8  9  1  0
  9 10  1  0
 10 11  1  0
 11 12  1  0
  5 13  2  0
 13 14  1  0
 14 15  2  0
 15 16  1  0
 16 17  2  0
 17 18  1  0
 18 19  2  0
 19  3  1  0
 12  7  1  0
 19 14  1  0
M  END
>  <inchikey>  (256) 
URGZMZUBRWCPPQ-UHFFFAOYSA-N

>  <alias>  (256) 
N#Cc1cc(N[C@H]2CCCNC2)nc2ccccc12

>  <tags>  (256) 
{'openbind_xx01zvns2b_c1_knitwork_pure', 'fragmenstein_placed'}

>  <HIPPO Pose ID>  (256) 
42794

>  <ref_pdb>  (256) 
41

>  <smiles>  (256) 
C15225-P38

>  <fragmenstein_runtime>  (256) 
1.957791

>  <fragmenstein_outcome>  (256) 
acceptable

>  <fragmenstein_mode>  (256) 
expansion

>  <fragmenstein_error>  (256) 


>  <HIPPO Compound ID>  (256) 
115462

>  <Energy>  (256) 
6.907672

>  <scratch_subdir>  (256) 
/opt/xchem-fragalysis-2/maxwin/BulkDock/SCRATCH/511031/C15225-P38

$$$$
COc1nc2ccccc2cc1O[C@H]1CCCNC1
     RDKit          3D

 19 21  0  0  0  0  0  0  0  0999 V2000
  -23.4330    7.9777    1.5587 C   0  0  0  0  0  0  0  0  0  0  0  0
  -22.1549    8.3487    1.0570 O   0  0  0  0  0  0  0  0  0  0  0  0
  -21.3631    7.2821    0.6885 C   0  0  0  0  0  0  0  0  0  0  0  0
  -21.9285    6.0472    0.7070 N   0  0  0  0  0  0  0  0  0  0  0  0
  -21.1540    4.9796    0.4626 C   0  0  0  0  0  0  0  0  0  0  0  0
  -21.7063    3.7072    0.5230 C   0  0  0  0  0  0  0  0  0  0  0  0
  -20.9299    2.5603    0.3334 C   0  0  0  0  0  0  0  0  0  0  0  0
  -19.5715    2.6799    0.0610 C   0  0  0  0  0  0  0  0  0  0  0  0
  -18.9982    3.9455   -0.0327 C   0  0  0  0  0  0  0  0  0  0  0  0
  -19.7815    5.0957    0.1738 C   0  0  0  0  0  0  0  0  0  0  0  0
  -19.2332    6.3827    0.1311 C   0  0  0  0  0  0  0  0  0  0  0  0
  -20.0215    7.5070    0.3861 C   0  0  0  0  0  0  0  0  0  0  0  0
  -19.3129    8.6743    0.3714 O   0  0  0  0  0  0  0  0  0  0  0  0
  -19.9959    9.9157    0.1815 C   0  0  1  0  0  0  0  0  0  0  0  0
  -20.1432   10.6229    1.5314 C   0  0  0  0  0  0  0  0  0  0  0  0
  -20.7553   12.0154    1.3777 C   0  0  0  0  0  0  0  0  0  0  0  0
  -20.6978   12.5393   -0.0577 C   0  0  0  0  0  0  0  0  0  0  0  0
  -19.4144   12.2577   -0.6959 N   0  0  0  0  0  0  0  0  0  0  0  0
  -19.1200   10.8101   -0.7314 C   0  0  0  0  0  0  0  0  0  0  0  0
  1  2  1  0
  2  3  1  0
  3  4  2  0
  4  5  1  0
  5  6  2  0
  6  7  1  0
  7  8  2  0
  8  9  1  0
  9 10  2  0
 10 11  1  0
 11 12  2  0
 12 13  1  0
 14 13  1  1
 14 15  1  0
 15 16  1  0
 16 17  1  0
 17 18  1  0
 18 19  1  0
 12  3  1  0
 19 14  1  0
 10  5  1  0
M  END
>  <inchikey>  (257) 
SBJXLUHXAPANFE-UHFFFAOYSA-N

>  <alias>  (257) 
COc1nc2ccccc2cc1O[C@H]1CCCNC1

>  <tags>  (257) 
{'openbind_xx01zvns2b_c1_knitwork_pure', 'fragmenstein_placed'}

>  <HIPPO Pose ID>  (257) 
42797

>  <ref_pdb>  (257) 
41

>  <smiles>  (257) 
C15230-P38

>  <fragmenstein_runtime>  (257) 
2.776691

>  <fragmenstein_outcome>  (257) 
acceptable

>  <fragmenstein_mode>  (257) 
expansion

>  <fragmenstein_error>  (257) 


>  <HIPPO Compound ID>  (257) 
10022

>  <Energy>  (257) 
74.867624

>  <scratch_subdir>  (257) 
/opt/xchem-fragalysis-2/maxwin/BulkDock/SCRATCH/511031/C15230-P38

$$$$
COc1nc2ccccc2cc1[C@H](C)[C@@H]1CCCNC1
     RDKit          3D

 20 22  0  0  0  0  0  0  0  0999 V2000
  -23.5140    8.0262    1.6294 C   0  0  0  0  0  0  0  0  0  0  0  0
  -22.1676    8.3925    1.3515 O   0  0  0  0  0  0  0  0  0  0  0  0
  -21.3896    7.3397    0.9023 C   0  0  0  0  0  0  0  0  0  0  0  0
  -21.9462    6.1078    0.8371 N   0  0  0  0  0  0  0  0  0  0  0  0
  -21.1649    5.0757    0.4936 C   0  0  0  0  0  0  0  0  0  0  0  0
  -21.6931    3.7916    0.5025 C   0  0  0  0  0  0  0  0  0  0  0  0
  -20.9059    2.6722    0.2192 C   0  0  0  0  0  0  0  0  0  0  0  0
  -19.5638    2.8346   -0.1048 C   0  0  0  0  0  0  0  0  0  0  0  0
  -19.0185    4.1154   -0.1550 C   0  0  0  0  0  0  0  0  0  0  0  0
  -19.8085    5.2379    0.1542 C   0  0  0  0  0  0  0  0  0  0  0  0
  -19.2750    6.5356    0.1821 C   0  0  0  0  0  0  0  0  0  0  0  0
  -20.0519    7.6202    0.6079 C   0  0  0  0  0  0  0  0  0  0  0  0
  -19.4895    9.0305    0.8036 C   0  0  2  0  0  0  0  0  0  0  0  0
  -19.9067    9.9143   -0.3800 C   0  0  0  0  0  0  0  0  0  0  0  0
  -17.9523    9.1110    1.0950 C   0  0  2  0  0  0  0  0  0  0  0  0
  -17.5710    8.3483    2.3916 C   0  0  0  0  0  0  0  0  0  0  0  0
  -17.1832    9.2961    3.5204 C   0  0  0  0  0  0  0  0  0  0  0  0
  -16.0455   10.2282    3.1011 C   0  0  0  0  0  0  0  0  0  0  0  0
  -16.0972   10.6415    1.6984 N   0  0  0  0  0  0  0  0  0  0  0  0
  -17.4489   10.5719    1.1496 C   0  0  0  0  0  0  0  0  0  0  0  0
  1  2  1  0
  2  3  1  0
  3  4  2  0
  4  5  1  0
  5  6  2  0
  6  7  1  0
  7  8  2  0
  8  9  1  0
  9 10  2  0
 10 11  1  0
 11 12  2  0
 12 13  1  0
 13 14  1  6
 13 15  1  0
 15 16  1  1
 16 17  1  0
 17 18  1  0
 18 19  1  0
 19 20  1  0
 12  3  1  0
 20 15  1  0
 10  5  1  0
M  END
>  <inchikey>  (258) 
YIXWKRLOGGAWRB-UHFFFAOYSA-N

>  <alias>  (258) 
COc1nc2ccccc2cc1[C@H](C)[C@@H]1CCCNC1

>  <tags>  (258) 
{'openbind_xx01zvns2b_c1_knitwork_pure', 'fragmenstein_placed'}

>  <HIPPO Pose ID>  (258) 
42800

>  <ref_pdb>  (258) 
41

>  <smiles>  (258) 
C15241-P38

>  <fragmenstein_runtime>  (258) 
2.365963

>  <fragmenstein_outcome>  (258) 
acceptable

>  <fragmenstein_mode>  (258) 
expansion

>  <fragmenstein_error>  (258) 


>  <HIPPO Compound ID>  (258) 
15241

>  <Energy>  (258) 
39.641666

>  <scratch_subdir>  (258) 
/opt/xchem-fragalysis-2/maxwin/BulkDock/SCRATCH/511031/C15241-P38

$$$$
CC(C)Nc1cccc(CNC(=O)CC2CCC2)c1
     RDKit          3D

 19 20  0  0  0  0  0  0  0  0999 V2000
   -4.0408    6.3083  -19.7540 C   0  0  0  0  0  0  0  0  0  0  0  0
   -4.7988    5.7693  -18.5473 C   0  0  0  0  0  0  0  0  0  0  0  0
   -3.9723    4.6706  -17.8985 C   0  0  0  0  0  0  0  0  0  0  0  0
   -6.1080    5.3121  -18.9655 N   0  0  0  0  0  0  0  0  0  0  0  0
   -7.0954    4.9258  -18.0704 C   0  0  0  0  0  0  0  0  0  0  0  0
   -8.3106    4.4525  -18.5684 C   0  0  0  0  0  0  0  0  0  0  0  0
   -9.3561    4.1247  -17.7183 C   0  0  0  0  0  0  0  0  0  0  0  0
   -9.1706    4.2021  -16.3453 C   0  0  0  0  0  0  0  0  0  0  0  0
   -7.9680    4.6397  -15.7994 C   0  0  0  0  0  0  0  0  0  0  0  0
   -7.7809    4.6782  -14.3063 C   0  0  0  0  0  0  0  0  0  0  0  0
   -6.5381    4.0864  -13.8856 N   0  0  0  0  0  0  0  0  0  0  0  0
   -6.2278    2.6574  -13.3652 C   0  0  0  0  0  0  0  0  0  0  0  0
   -6.9179    1.7200  -13.2713 O   0  0  0  0  0  0  0  0  0  0  0  0
   -4.7488    2.6221  -12.9835 C   0  0  0  0  0  0  0  0  0  0  0  0
   -4.5132    1.9780  -11.6253 C   0  0  0  0  0  0  0  0  0  0  0  0
   -4.8382    2.8332  -10.3724 C   0  0  0  0  0  0  0  0  0  0  0  0
   -3.6030    2.1887   -9.7102 C   0  0  0  0  0  0  0  0  0  0  0  0
   -3.0432    1.9709  -11.1294 C   0  0  0  0  0  0  0  0  0  0  0  0
   -6.9716    5.0682  -16.6810 C   0  0  0  0  0  0  0  0  0  0  0  0
  1  2  1  0
  2  3  1  0
  2  4  1  0
  4  5  1  0
  5  6  2  0
  6  7  1  0
  7  8  2  0
  8  9  1  0
  9 10  1  0
 10 11  1  0
 11 12  1  0
 12 13  2  0
 12 14  1  0
 14 15  1  0
 15 16  1  0
 16 17  1  0
 17 18  1  0
  9 19  2  0
 19  5  1  0
 18 15  1  0
M  END
>  <inchikey>  (259) 
XYENJLBKBRPDSX-UHFFFAOYSA-N

>  <alias>  (259) 
CC(C)Nc1cccc(CNC(=O)CC2CCC2)c1

>  <tags>  (259) 
{'openbind_xx01zvns2b_c1_knitwork_pure', 'fragmenstein_placed'}

>  <HIPPO Pose ID>  (259) 
42832

>  <ref_pdb>  (259) 
41

>  <smiles>  (259) 
C114890-P35

>  <fragmenstein_runtime>  (259) 
3.658512

>  <fragmenstein_outcome>  (259) 
acceptable

>  <fragmenstein_mode>  (259) 
expansion

>  <fragmenstein_error>  (259) 


>  <HIPPO Compound ID>  (259) 
14982

>  <Energy>  (259) 
19.561253

>  <scratch_subdir>  (259) 
/opt/xchem-fragalysis-2/maxwin/BulkDock/SCRATCH/511031/C114890-P35

$$$$
Brc1ccc2nc(CCC3CCNCC3)[nH]c2c1
     RDKit          3D

 18 20  0  0  0  0  0  0  0  0999 V2000
  -10.5430    4.3358  -17.7783 Br  0  0  0  0  0  0  0  0  0  0  0  0
   -8.7874    4.4003  -17.1253 C   0  0  0  0  0  0  0  0  0  0  0  0
   -8.5520    4.5018  -15.7535 C   0  0  0  0  0  0  0  0  0  0  0  0
   -7.2700    4.8098  -15.2841 C   0  0  0  0  0  0  0  0  0  0  0  0
   -6.2479    5.0154  -16.2233 C   0  0  0  0  0  0  0  0  0  0  0  0
   -4.9428    5.4049  -16.0452 N   0  0  0  0  0  0  0  0  0  0  0  0
   -4.4093    5.4283  -17.2516 C   0  0  0  0  0  0  0  0  0  0  0  0
   -3.0024    5.7807  -17.5890 C   0  0  0  0  0  0  0  0  0  0  0  0
   -2.8529    6.8871  -18.6424 C   0  0  0  0  0  0  0  0  0  0  0  0
   -3.2031    8.3145  -18.1591 C   0  0  0  0  0  0  0  0  0  0  0  0
   -4.7123    8.5057  -17.9133 C   0  0  0  0  0  0  0  0  0  0  0  0
   -5.1570    9.9372  -18.1896 C   0  0  0  0  0  0  0  0  0  0  0  0
   -4.9633   10.3158  -19.5904 N   0  0  0  0  0  0  0  0  0  0  0  0
   -3.7417    9.7577  -20.1831 C   0  0  0  0  0  0  0  0  0  0  0  0
   -2.6812    9.3738  -19.1541 C   0  0  0  0  0  0  0  0  0  0  0  0
   -5.3273    5.0540  -18.2015 N   0  0  0  0  0  0  0  0  0  0  0  0
   -6.5197    4.8354  -17.5719 C   0  0  0  0  0  0  0  0  0  0  0  0
   -7.7715    4.5086  -18.0702 C   0  0  0  0  0  0  0  0  0  0  0  0
  1  2  1  0
  2  3  2  0
  3  4  1  0
  4  5  2  0
  5  6  1  0
  6  7  2  0
  7  8  1  0
  8  9  1  0
  9 10  1  0
 10 11  1  0
 11 12  1  0
 12 13  1  0
 13 14  1  0
 14 15  1  0
  7 16  1  0
 16 17  1  0
 17 18  2  0
 18  2  1  0
 17  5  1  0
 15 10  1  0
M  END
>  <inchikey>  (260) 
VXEOKBJWNBWDOF-UHFFFAOYSA-N

>  <alias>  (260) 
Brc1ccc2nc(CCC3CCNCC3)[nH]c2c1

>  <tags>  (260) 
{'openbind_xx01zvns2b_c1_knitwork_pure', 'fragmenstein_placed'}

>  <HIPPO Pose ID>  (260) 
43100

>  <ref_pdb>  (260) 
41

>  <smiles>  (260) 
C1842-P145

>  <fragmenstein_runtime>  (260) 
1.0407

>  <fragmenstein_outcome>  (260) 
acceptable

>  <fragmenstein_mode>  (260) 
expansion

>  <fragmenstein_error>  (260) 


>  <HIPPO Compound ID>  (260) 
114072

>  <Energy>  (260) 
21.046338

>  <scratch_subdir>  (260) 
/opt/xchem-fragalysis-2/maxwin/BulkDock/SCRATCH/511031/C1842-P145

$$$$
C[S@](=O)(=NC(=O)c1cc(Br)cc2[nH]cnc12)C1CCNCC1
     RDKit          3D

 22 24  0  0  0  0  0  0  0  0999 V2000
   -8.0727    6.2350  -10.8925 C   0  0  0  0  0  0  0  0  0  0  0  0
   -7.2565    4.6777  -11.2112 S   0  0  2  0  0  0  0  0  0  0  0  0
   -5.8539    4.9187  -10.9002 O   0  0  0  0  0  0  0  0  0  0  0  0
   -7.7457    4.2666  -12.6375 N   0  0  0  0  0  0  0  0  0  0  0  0
   -7.1847    4.9915  -13.7301 C   0  0  0  0  0  0  0  0  0  0  0  0
   -6.5704    6.0434  -13.5490 O   0  0  0  0  0  0  0  0  0  0  0  0
   -7.3638    4.6575  -15.1595 C   0  0  0  0  0  0  0  0  0  0  0  0
   -8.6364    4.3390  -15.6602 C   0  0  0  0  0  0  0  0  0  0  0  0
   -8.8424    4.3009  -17.0416 C   0  0  0  0  0  0  0  0  0  0  0  0
  -10.5771    4.3175  -17.7546 Br  0  0  0  0  0  0  0  0  0  0  0  0
   -7.8135    4.4568  -17.9663 C   0  0  0  0  0  0  0  0  0  0  0  0
   -6.5722    4.7745  -17.4415 C   0  0  0  0  0  0  0  0  0  0  0  0
   -5.3880    5.0571  -18.0676 N   0  0  0  0  0  0  0  0  0  0  0  0
   -4.4799    5.3745  -17.1032 C   0  0  0  0  0  0  0  0  0  0  0  0
   -5.0020    5.2964  -15.9009 N   0  0  0  0  0  0  0  0  0  0  0  0
   -6.3155    4.9033  -16.0782 C   0  0  0  0  0  0  0  0  0  0  0  0
   -7.8256    3.6041   -9.8894 C   0  0  0  0  0  0  0  0  0  0  0  0
   -8.8832    2.5966  -10.2864 C   0  0  0  0  0  0  0  0  0  0  0  0
   -9.6430    2.0499   -9.0769 C   0  0  0  0  0  0  0  0  0  0  0  0
   -8.8996    2.1486   -7.8433 N   0  0  0  0  0  0  0  0  0  0  0  0
   -8.6494    3.5175   -7.4509 C   0  0  0  0  0  0  0  0  0  0  0  0
   -8.2351    4.3923   -8.6312 C   0  0  0  0  0  0  0  0  0  0  0  0
  2  1  1  1
  2  3  2  0
  2  4  2  0
  4  5  1  0
  5  6  2  0
  5  7  1  0
  7  8  2  0
  8  9  1  0
  9 10  1  0
  9 11  2  0
 11 12  1  0
 12 13  1  0
 13 14  1  0
 14 15  2  0
 15 16  1  0
  2 17  1  0
 17 18  1  0
 18 19  1  0
 19 20  1  0
 20 21  1  0
 21 22  1  0
 16  7  1  0
 22 17  1  0
 16 12  2  0
M  END
>  <inchikey>  (261) 
HIXLDURYBDWPFM-UHFFFAOYSA-N

>  <alias>  (261) 
C[S@](=O)(=NC(=O)c1cc(Br)cc2[nH]cnc12)C1CCNCC1

>  <tags>  (261) 
{'openbind_xx01zvns2b_c1_knitwork_pure', 'fragmenstein_placed'}

>  <HIPPO Pose ID>  (261) 
43101

>  <ref_pdb>  (261) 
41

>  <smiles>  (261) 
C1843-P145

>  <fragmenstein_runtime>  (261) 
2.013546

>  <fragmenstein_outcome>  (261) 
acceptable

>  <fragmenstein_mode>  (261) 
expansion

>  <fragmenstein_error>  (261) 


>  <HIPPO Compound ID>  (261) 
5831

>  <Energy>  (261) 
-5.961223

>  <scratch_subdir>  (261) 
/opt/xchem-fragalysis-2/maxwin/BulkDock/SCRATCH/511031/C1843-P145

$$$$
Cc1nccn1C[C@H](C)CNC(=O)c1cnn2c1CNCC2
     RDKit          3D

 22 24  0  0  0  0  0  0  0  0999 V2000
   -5.6979    4.0969  -15.2599 C   0  0  0  0  0  0  0  0  0  0  0  0
   -6.8011    4.4282  -16.1901 C   0  0  0  0  0  0  0  0  0  0  0  0
   -6.7335    4.4724  -17.5052 N   0  0  0  0  0  0  0  0  0  0  0  0
   -8.0209    4.6517  -17.9366 C   0  0  0  0  0  0  0  0  0  0  0  0
   -8.8757    4.7683  -16.8661 C   0  0  0  0  0  0  0  0  0  0  0  0
   -8.0674    4.7339  -15.7640 N   0  0  0  0  0  0  0  0  0  0  0  0
   -8.4226    5.0858  -14.3938 C   0  0  0  0  0  0  0  0  0  0  0  0
   -8.2009    6.5877  -14.1166 C   0  0  2  0  0  0  0  0  0  0  0  0
   -6.7549    7.0829  -14.0707 C   0  0  0  0  0  0  0  0  0  0  0  0
   -8.9926    7.1539  -12.9380 C   0  0  0  0  0  0  0  0  0  0  0  0
   -8.7526    6.6740  -11.6014 N   0  0  0  0  0  0  0  0  0  0  0  0
   -7.7979    5.5823  -11.0876 C   0  0  0  0  0  0  0  0  0  0  0  0
   -6.9993    4.9515  -11.6525 O   0  0  0  0  0  0  0  0  0  0  0  0
   -8.0915    5.3322   -9.6829 C   0  0  0  0  0  0  0  0  0  0  0  0
   -8.3079    6.2418   -8.6212 C   0  0  0  0  0  0  0  0  0  0  0  0
   -8.6311    5.6413   -7.4700 N   0  0  0  0  0  0  0  0  0  0  0  0
   -8.5649    4.3300   -7.7863 N   0  0  0  0  0  0  0  0  0  0  0  0
   -8.2639    4.0925   -9.0969 C   0  0  0  0  0  0  0  0  0  0  0  0
   -8.2316    2.7079   -9.6369 C   0  0  0  0  0  0  0  0  0  0  0  0
   -8.1427    1.7296   -8.5570 N   0  0  0  0  0  0  0  0  0  0  0  0
   -9.1224    1.9695   -7.5039 C   0  0  0  0  0  0  0  0  0  0  0  0
   -8.8315    3.2955   -6.8034 C   0  0  0  0  0  0  0  0  0  0  0  0
  1  2  1  0
  2  3  2  0
  3  4  1  0
  4  5  2  0
  5  6  1  0
  6  7  1  0
  7  8  1  0
  8  9  1  1
  8 10  1  0
 10 11  1  0
 11 12  1  0
 12 13  2  0
 12 14  1  0
 14 15  1  0
 15 16  2  0
 16 17  1  0
 17 18  1  0
 18 19  1  0
 19 20  1  0
 20 21  1  0
 21 22  1  0
  6  2  1  0
 18 14  2  0
 22 17  1  0
M  END
>  <inchikey>  (262) 
HFTRAJHPSZWPMP-UHFFFAOYSA-N

>  <alias>  (262) 
Cc1nccn1C[C@H](C)CNC(=O)c1cnn2c1CNCC2

>  <tags>  (262) 
{'openbind_xx01zvns2b_c1_knitwork_pure', 'fragmenstein_placed'}

>  <HIPPO Pose ID>  (262) 
43314

>  <ref_pdb>  (262) 
41

>  <smiles>  (262) 
C10156-P35

>  <fragmenstein_runtime>  (262) 
3.389285

>  <fragmenstein_outcome>  (262) 
acceptable

>  <fragmenstein_mode>  (262) 
expansion

>  <fragmenstein_error>  (262) 


>  <HIPPO Compound ID>  (262) 
14892

>  <Energy>  (262) 
6.250556

>  <scratch_subdir>  (262) 
/opt/xchem-fragalysis-2/maxwin/BulkDock/SCRATCH/511031/C10156-P35

$$$$
CN(CCc1ccccn1)Cc1cccc2[nH]ccc12
     RDKit          3D

 20 22  0  0  0  0  0  0  0  0999 V2000
   -3.1916    5.8482  -19.6424 C   0  0  0  0  0  0  0  0  0  0  0  0
   -3.7308    6.8771  -18.7729 N   0  0  0  0  0  0  0  0  0  0  0  0
   -4.4812    7.9490  -19.4292 C   0  0  0  0  0  0  0  0  0  0  0  0
   -3.7244    8.7180  -20.5299 C   0  0  0  0  0  0  0  0  0  0  0  0
   -3.7924    8.2101  -21.9528 C   0  0  0  0  0  0  0  0  0  0  0  0
   -4.9614    7.6983  -22.5056 C   0  0  0  0  0  0  0  0  0  0  0  0
   -5.0070    7.4127  -23.8692 C   0  0  0  0  0  0  0  0  0  0  0  0
   -3.8911    7.6509  -24.6571 C   0  0  0  0  0  0  0  0  0  0  0  0
   -2.7610    8.1492  -24.0390 C   0  0  0  0  0  0  0  0  0  0  0  0
   -2.6876    8.4267  -22.7165 N   0  0  0  0  0  0  0  0  0  0  0  0
   -4.3980    6.3517  -17.5722 C   0  0  0  0  0  0  0  0  0  0  0  0
   -5.7309    5.6307  -17.6089 C   0  0  0  0  0  0  0  0  0  0  0  0
   -6.3998    5.2124  -18.7740 C   0  0  0  0  0  0  0  0  0  0  0  0
   -7.6269    4.5436  -18.7262 C   0  0  0  0  0  0  0  0  0  0  0  0
   -8.2627    4.2632  -17.5248 C   0  0  0  0  0  0  0  0  0  0  0  0
   -7.5802    4.6098  -16.3645 C   0  0  0  0  0  0  0  0  0  0  0  0
   -7.8976    4.3298  -15.0539 N   0  0  0  0  0  0  0  0  0  0  0  0
   -6.9546    4.8693  -14.2211 C   0  0  0  0  0  0  0  0  0  0  0  0
   -5.9896    5.4580  -15.0062 C   0  0  0  0  0  0  0  0  0  0  0  0
   -6.3571    5.2811  -16.3755 C   0  0  0  0  0  0  0  0  0  0  0  0
  1  2  1  0
  2  3  1  0
  3  4  1  0
  4  5  1  0
  5  6  2  0
  6  7  1  0
  7  8  2  0
  8  9  1  0
  9 10  2  0
  2 11  1  0
 11 12  1  0
 12 13  2  0
 13 14  1  0
 14 15  2  0
 15 16  1  0
 16 17  1  0
 17 18  1  0
 18 19  2  0
 19 20  1  0
 10  5  1  0
 20 12  1  0
 20 16  2  0
M  END
>  <inchikey>  (263) 
XOMCAFHGYBJSIM-UHFFFAOYSA-N

>  <alias>  (263) 
CN(CCc1ccccn1)Cc1cccc2[nH]ccc12

>  <tags>  (263) 
{'openbind_xx01zvns2b_c1_knitwork_pure', 'fragmenstein_placed'}

>  <HIPPO Pose ID>  (263) 
43371

>  <ref_pdb>  (263) 
41

>  <smiles>  (263) 
C8340-P5

>  <fragmenstein_runtime>  (263) 
5.072606

>  <fragmenstein_outcome>  (263) 
acceptable

>  <fragmenstein_mode>  (263) 
expansion

>  <fragmenstein_error>  (263) 


>  <HIPPO Compound ID>  (263) 
56453

>  <Energy>  (263) 
64.25332

>  <scratch_subdir>  (263) 
/opt/xchem-fragalysis-2/maxwin/BulkDock/SCRATCH/511031/C8340-P5

$$$$
COc1ccc2[nH]cc(CCNC[C@H](O)c3ccccn3)c2c1
     RDKit          3D

 23 25  0  0  0  0  0  0  0  0999 V2000
   -6.5979    4.2565  -20.0048 C   0  0  0  0  0  0  0  0  0  0  0  0
   -7.5480    4.2035  -18.9627 O   0  0  0  0  0  0  0  0  0  0  0  0
   -7.1776    4.8557  -17.8271 C   0  0  0  0  0  0  0  0  0  0  0  0
   -8.0874    4.7960  -16.7800 C   0  0  0  0  0  0  0  0  0  0  0  0
   -7.8092    5.4107  -15.5601 C   0  0  0  0  0  0  0  0  0  0  0  0
   -6.5871    6.0843  -15.4389 C   0  0  0  0  0  0  0  0  0  0  0  0
   -6.0562    6.7620  -14.3725 N   0  0  0  0  0  0  0  0  0  0  0  0
   -4.8179    7.2490  -14.6913 C   0  0  0  0  0  0  0  0  0  0  0  0
   -4.5119    6.8886  -15.9929 C   0  0  0  0  0  0  0  0  0  0  0  0
   -3.1965    7.1899  -16.6637 C   0  0  0  0  0  0  0  0  0  0  0  0
   -3.1163    7.2413  -18.1987 C   0  0  0  0  0  0  0  0  0  0  0  0
   -4.0552    8.1926  -18.8027 N   0  0  0  0  0  0  0  0  0  0  0  0
   -3.7925    8.4351  -20.2347 C   0  0  0  0  0  0  0  0  0  0  0  0
   -3.8227    7.1904  -21.1585 C   0  0  2  0  0  0  0  0  0  0  0  0
   -2.5663    6.4798  -21.0921 O   0  0  0  0  0  0  0  0  0  0  0  0
   -4.0207    7.6267  -22.5968 C   0  0  0  0  0  0  0  0  0  0  0  0
   -5.2864    7.5969  -23.1751 C   0  0  0  0  0  0  0  0  0  0  0  0
   -5.4143    7.9902  -24.4998 C   0  0  0  0  0  0  0  0  0  0  0  0
   -4.2891    8.4054  -25.2039 C   0  0  0  0  0  0  0  0  0  0  0  0
   -3.0666    8.4062  -24.5540 C   0  0  0  0  0  0  0  0  0  0  0  0
   -2.9019    8.0273  -23.2681 N   0  0  0  0  0  0  0  0  0  0  0  0
   -5.6485    6.1591  -16.4678 C   0  0  0  0  0  0  0  0  0  0  0  0
   -5.9669    5.5345  -17.6786 C   0  0  0  0  0  0  0  0  0  0  0  0
  1  2  1  0
  2  3  1  0
  3  4  2  0
  4  5  1  0
  5  6  2  0
  6  7  1  0
  7  8  1  0
  8  9  2  0
  9 10  1  0
 10 11  1  0
 11 12  1  0
 12 13  1  0
 13 14  1  0
 14 15  1  6
 14 16  1  0
 16 17  2  0
 17 18  1  0
 18 19  2  0
 19 20  1  0
 20 21  2  0
  9 22  1  0
 22 23  2  0
 23  3  1  0
 22  6  1  0
 21 16  1  0
M  END
>  <inchikey>  (264) 
CWCJMURGHOVCJV-UHFFFAOYSA-N

>  <alias>  (264) 
COc1ccc2[nH]cc(CCNC[C@H](O)c3ccccn3)c2c1

>  <tags>  (264) 
{'openbind_xx01zvns2b_c1_knitwork_pure', 'fragmenstein_placed'}

>  <HIPPO Pose ID>  (264) 
43373

>  <ref_pdb>  (264) 
41

>  <smiles>  (264) 
C8345-P5

>  <fragmenstein_runtime>  (264) 
1.791757

>  <fragmenstein_outcome>  (264) 
acceptable

>  <fragmenstein_mode>  (264) 
expansion

>  <fragmenstein_error>  (264) 


>  <HIPPO Compound ID>  (264) 
55811

>  <Energy>  (264) 
100.516829

>  <scratch_subdir>  (264) 
/opt/xchem-fragalysis-2/maxwin/BulkDock/SCRATCH/511031/C8345-P5

$$$$
O=C1CCN(S(=O)(=O)NCCn2cc(Cl)cn2)CC1
     RDKit          3D

 19 20  0  0  0  0  0  0  0  0999 V2000
  -10.8439    3.7476  -17.7148 O   0  0  0  0  0  0  0  0  0  0  0  0
   -9.6990    4.1925  -17.6150 C   0  0  0  0  0  0  0  0  0  0  0  0
   -9.1394    4.6334  -16.2844 C   0  0  0  0  0  0  0  0  0  0  0  0
   -7.6308    4.6536  -16.2220 C   0  0  0  0  0  0  0  0  0  0  0  0
   -7.0229    5.1511  -17.4929 N   0  0  0  0  0  0  0  0  0  0  0  0
   -5.3628    5.4049  -17.2981 S   0  0  0  0  0  0  0  0  0  0  0  0
   -4.8207    4.2735  -16.5917 O   0  0  0  0  0  0  0  0  0  0  0  0
   -5.2029    6.7654  -16.8492 O   0  0  0  0  0  0  0  0  0  0  0  0
   -4.7963    5.2630  -18.8646 N   0  0  0  0  0  0  0  0  0  0  0  0
   -3.4665    5.8383  -19.1659 C   0  0  0  0  0  0  0  0  0  0  0  0
   -2.3379    5.3228  -18.2781 C   0  0  0  0  0  0  0  0  0  0  0  0
   -2.0460    6.1970  -17.1550 N   0  0  0  0  0  0  0  0  0  0  0  0
   -1.5550    7.4736  -17.2320 C   0  0  0  0  0  0  0  0  0  0  0  0
   -1.4196    7.9038  -15.9357 C   0  0  0  0  0  0  0  0  0  0  0  0
   -0.8928    9.4114  -15.3831 Cl  0  0  0  0  0  0  0  0  0  0  0  0
   -1.8040    6.8070  -15.1483 C   0  0  0  0  0  0  0  0  0  0  0  0
   -2.1461    5.7492  -15.8896 N   0  0  0  0  0  0  0  0  0  0  0  0
   -7.4391    4.2980  -18.6172 C   0  0  0  0  0  0  0  0  0  0  0  0
   -8.9118    4.4467  -18.8566 C   0  0  0  0  0  0  0  0  0  0  0  0
  1  2  2  0
  2  3  1  0
  3  4  1  0
  4  5  1  0
  5  6  1  0
  6  7  2  0
  6  8  2  0
  6  9  1  0
  9 10  1  0
 10 11  1  0
 11 12  1  0
 12 13  1  0
 13 14  2  0
 14 15  1  0
 14 16  1  0
 16 17  2  0
  5 18  1  0
 18 19  1  0
 19  2  1  0
 17 12  1  0
M  END
>  <inchikey>  (265) 
FRBPJSMRXAMUFB-UHFFFAOYSA-N

>  <alias>  (265) 
O=C1CCN(S(=O)(=O)NCCn2cc(Cl)cn2)CC1

>  <tags>  (265) 
{'openbind_xx01zvns2b_c1_knitwork_pure', 'fragmenstein_placed'}

>  <HIPPO Pose ID>  (265) 
43438

>  <ref_pdb>  (265) 
41

>  <smiles>  (265) 
C47771-P65

>  <fragmenstein_runtime>  (265) 
2.597718

>  <fragmenstein_outcome>  (265) 
acceptable

>  <fragmenstein_mode>  (265) 
expansion

>  <fragmenstein_error>  (265) 


>  <HIPPO Compound ID>  (265) 
16770

>  <Energy>  (265) 
-165.225283

>  <scratch_subdir>  (265) 
/opt/xchem-fragalysis-2/maxwin/BulkDock/SCRATCH/511031/C47771-P65

$$$$
CC(C)n1ccc(CNS(=O)(=O)N2CCC(=O)CC2)n1
     RDKit          3D

 20 21  0  0  0  0  0  0  0  0999 V2000
   -1.3917   10.0537  -19.0159 C   0  0  0  0  0  0  0  0  0  0  0  0
   -0.4394    8.9332  -18.6006 C   0  0  0  0  0  0  0  0  0  0  0  0
    0.5619    8.6116  -19.7094 C   0  0  0  0  0  0  0  0  0  0  0  0
   -1.1684    7.7416  -18.1796 N   0  0  0  0  0  0  0  0  0  0  0  0
   -1.1529    7.1803  -16.9359 C   0  0  0  0  0  0  0  0  0  0  0  0
   -1.9734    6.0806  -17.0039 C   0  0  0  0  0  0  0  0  0  0  0  0
   -2.4283    6.0434  -18.3433 C   0  0  0  0  0  0  0  0  0  0  0  0
   -3.3719    5.0676  -18.9651 C   0  0  0  0  0  0  0  0  0  0  0  0
   -4.7644    5.5253  -18.7753 N   0  0  0  0  0  0  0  0  0  0  0  0
   -5.3265    5.4528  -17.2127 S   0  0  0  0  0  0  0  0  0  0  0  0
   -4.7538    4.2969  -16.5682 O   0  0  0  0  0  0  0  0  0  0  0  0
   -5.2203    6.7699  -16.6325 O   0  0  0  0  0  0  0  0  0  0  0  0
   -6.9785    5.1815  -17.4452 N   0  0  0  0  0  0  0  0  0  0  0  0
   -7.6039    4.6543  -16.1943 C   0  0  0  0  0  0  0  0  0  0  0  0
   -9.1101    4.6188  -16.2909 C   0  0  0  0  0  0  0  0  0  0  0  0
   -9.6362    4.1875  -17.6375 C   0  0  0  0  0  0  0  0  0  0  0  0
  -10.7903    3.7718  -17.7652 O   0  0  0  0  0  0  0  0  0  0  0  0
   -8.8080    4.4284  -18.8589 C   0  0  0  0  0  0  0  0  0  0  0  0
   -7.3355    4.3060  -18.5783 C   0  0  0  0  0  0  0  0  0  0  0  0
   -1.9644    7.0868  -19.0486 N   0  0  0  0  0  0  0  0  0  0  0  0
  1  2  1  0
  2  3  1  0
  2  4  1  0
  4  5  1  0
  5  6  2  0
  6  7  1  0
  7  8  1  0
  8  9  1  0
  9 10  1  0
 10 11  2  0
 10 12  2  0
 10 13  1  0
 13 14  1  0
 14 15  1  0
 15 16  1  0
 16 17  2  0
 16 18  1  0
 18 19  1  0
  7 20  2  0
 20  4  1  0
 19 13  1  0
M  END
>  <inchikey>  (266) 
CZFXVCUGCXVZCO-UHFFFAOYSA-N

>  <alias>  (266) 
CC(C)n1ccc(CNS(=O)(=O)N2CCC(=O)CC2)n1

>  <tags>  (266) 
{'openbind_xx01zvns2b_c1_knitwork_pure', 'fragmenstein_placed'}

>  <HIPPO Pose ID>  (266) 
43441

>  <ref_pdb>  (266) 
41

>  <smiles>  (266) 
C47801-P65

>  <fragmenstein_runtime>  (266) 
3.066451

>  <fragmenstein_outcome>  (266) 
acceptable

>  <fragmenstein_mode>  (266) 
expansion

>  <fragmenstein_error>  (266) 


>  <HIPPO Compound ID>  (266) 
50645

>  <Energy>  (266) 
-186.124249

>  <scratch_subdir>  (266) 
/opt/xchem-fragalysis-2/maxwin/BulkDock/SCRATCH/511031/C47801-P65

$$$$
Clc1cccc2cc([C@@H]3CCCNC3)[nH]c12
     RDKit          3D

 16 18  0  0  0  0  0  0  0  0999 V2000
   -8.9573    4.9810  -15.1360 Cl  0  0  0  0  0  0  0  0  0  0  0  0
   -7.8048    5.0964  -16.3944 C   0  0  0  0  0  0  0  0  0  0  0  0
   -8.0708    4.5694  -17.6553 C   0  0  0  0  0  0  0  0  0  0  0  0
   -7.1268    4.6773  -18.6720 C   0  0  0  0  0  0  0  0  0  0  0  0
   -5.9069    5.3308  -18.4594 C   0  0  0  0  0  0  0  0  0  0  0  0
   -5.6330    5.8817  -17.1942 C   0  0  0  0  0  0  0  0  0  0  0  0
   -4.5409    6.6015  -16.6380 C   0  0  0  0  0  0  0  0  0  0  0  0
   -4.8401    6.8935  -15.3204 C   0  0  0  0  0  0  0  0  0  0  0  0
   -4.0435    7.6374  -14.2864 C   0  0  2  0  0  0  0  0  0  0  0  0
   -3.7242    6.7554  -13.0703 C   0  0  0  0  0  0  0  0  0  0  0  0
   -2.9891    7.5601  -12.0004 C   0  0  0  0  0  0  0  0  0  0  0  0
   -3.7493    8.8371  -11.6463 C   0  0  0  0  0  0  0  0  0  0  0  0
   -3.9925    9.6734  -12.8242 N   0  0  0  0  0  0  0  0  0  0  0  0
   -4.7507    8.9354  -13.8435 C   0  0  0  0  0  0  0  0  0  0  0  0
   -6.0791    6.3557  -15.0626 N   0  0  0  0  0  0  0  0  0  0  0  0
   -6.5864    5.7494  -16.1878 C   0  0  0  0  0  0  0  0  0  0  0  0
  1  2  1  0
  2  3  2  0
  3  4  1  0
  4  5  2  0
  5  6  1  0
  6  7  1  0
  7  8  2  0
  9  8  1  6
  9 10  1  0
 10 11  1  0
 11 12  1  0
 12 13  1  0
 13 14  1  0
  8 15  1  0
 15 16  1  0
 16  2  1  0
 16  6  2  0
 14  9  1  0
M  END
>  <inchikey>  (267) 
PGIVFWDVJVRXQT-UHFFFAOYSA-N

>  <alias>  (267) 
Clc1cccc2cc([C@@H]3CCCNC3)[nH]c12

>  <tags>  (267) 
{'openbind_xx01zvns2b_c1_knitwork_pure', 'fragmenstein_placed'}

>  <HIPPO Pose ID>  (267) 
43682

>  <ref_pdb>  (267) 
41

>  <smiles>  (267) 
C49361-P5

>  <fragmenstein_runtime>  (267) 
1.040484

>  <fragmenstein_outcome>  (267) 
acceptable

>  <fragmenstein_mode>  (267) 
expansion

>  <fragmenstein_error>  (267) 


>  <HIPPO Compound ID>  (267) 
49548

>  <Energy>  (267) 
30.690528

>  <scratch_subdir>  (267) 
/opt/xchem-fragalysis-2/maxwin/BulkDock/SCRATCH/511031/C49361-P5

$$$$
Clc1cccc2ccn([C@H]3CCCNC3)c12
     RDKit          3D

 16 18  0  0  0  0  0  0  0  0999 V2000
   -9.1971    4.7530  -15.8347 Cl  0  0  0  0  0  0  0  0  0  0  0  0
   -7.7883    4.9869  -16.7701 C   0  0  0  0  0  0  0  0  0  0  0  0
   -7.8477    4.6125  -18.1142 C   0  0  0  0  0  0  0  0  0  0  0  0
   -6.7474    4.7658  -18.9422 C   0  0  0  0  0  0  0  0  0  0  0  0
   -5.5694    5.3230  -18.4539 C   0  0  0  0  0  0  0  0  0  0  0  0
   -5.4896    5.7180  -17.1054 C   0  0  0  0  0  0  0  0  0  0  0  0
   -4.4486    6.2936  -16.3405 C   0  0  0  0  0  0  0  0  0  0  0  0
   -4.9112    6.4410  -15.0580 C   0  0  0  0  0  0  0  0  0  0  0  0
   -6.2132    5.9960  -15.0021 N   0  0  0  0  0  0  0  0  0  0  0  0
   -7.0377    5.9768  -13.7873 C   0  0  1  0  0  0  0  0  0  0  0  0
   -7.0866    4.5689  -13.1531 C   0  0  0  0  0  0  0  0  0  0  0  0
   -7.4681    4.6593  -11.6810 C   0  0  0  0  0  0  0  0  0  0  0  0
   -6.4296    5.4673  -10.8997 C   0  0  0  0  0  0  0  0  0  0  0  0
   -5.7672    6.5254  -11.6760 N   0  0  0  0  0  0  0  0  0  0  0  0
   -6.6520    7.0440  -12.7281 C   0  0  0  0  0  0  0  0  0  0  0  0
   -6.5984    5.5449  -16.2610 C   0  0  0  0  0  0  0  0  0  0  0  0
  1  2  1  0
  2  3  2  0
  3  4  1  0
  4  5  2  0
  5  6  1  0
  6  7  1  0
  7  8  2  0
  8  9  1  0
 10  9  1  6
 10 11  1  0
 11 12  1  0
 12 13  1  0
 13 14  1  0
 14 15  1  0
  9 16  1  0
 16  2  1  0
 16  6  2  0
 15 10  1  0
M  END
>  <inchikey>  (268) 
BUKPNXRHXOSHKU-UHFFFAOYSA-N

>  <alias>  (268) 
Clc1cccc2ccn([C@H]3CCCNC3)c12

>  <tags>  (268) 
{'openbind_xx01zvns2b_c1_knitwork_pure', 'fragmenstein_placed'}

>  <HIPPO Pose ID>  (268) 
43683

>  <ref_pdb>  (268) 
41

>  <smiles>  (268) 
C49362-P5

>  <fragmenstein_runtime>  (268) 
1.06852

>  <fragmenstein_outcome>  (268) 
acceptable

>  <fragmenstein_mode>  (268) 
expansion

>  <fragmenstein_error>  (268) 


>  <HIPPO Compound ID>  (268) 
13804

>  <Energy>  (268) 
47.498927

>  <scratch_subdir>  (268) 
/opt/xchem-fragalysis-2/maxwin/BulkDock/SCRATCH/511031/C49362-P5

$$$$
N[C@@H](c1ncc[nH]1)[C@@H](O)c1cscn1
     RDKit          3D

 14 15  0  0  0  0  0  0  0  0999 V2000
   -7.0809    4.9662  -14.7234 N   0  0  0  0  0  0  0  0  0  0  0  0
   -6.3582    4.8383  -16.0441 C   0  0  1  0  0  0  0  0  0  0  0  0
   -7.4189    4.7203  -17.0938 C   0  0  0  0  0  0  0  0  0  0  0  0
   -8.7196    4.7433  -16.8514 N   0  0  0  0  0  0  0  0  0  0  0  0
   -9.3282    4.4351  -18.0370 C   0  0  0  0  0  0  0  0  0  0  0  0
   -8.3866    4.2387  -19.0140 C   0  0  0  0  0  0  0  0  0  0  0  0
   -7.1757    4.4654  -18.4178 N   0  0  0  0  0  0  0  0  0  0  0  0
   -5.3896    6.0363  -16.1975 C   0  0  1  0  0  0  0  0  0  0  0  0
   -5.0203    6.4748  -14.8661 O   0  0  0  0  0  0  0  0  0  0  0  0
   -4.1464    5.7405  -17.0017 C   0  0  0  0  0  0  0  0  0  0  0  0
   -2.8538    6.0878  -16.6373 C   0  0  0  0  0  0  0  0  0  0  0  0
   -1.7513    5.7049  -17.8851 S   0  0  0  0  0  0  0  0  0  0  0  0
   -3.0464    5.0489  -18.7937 C   0  0  0  0  0  0  0  0  0  0  0  0
   -4.2427    5.1196  -18.2450 N   0  0  0  0  0  0  0  0  0  0  0  0
  2  1  1  1
  2  3  1  0
  3  4  2  0
  4  5  1  0
  5  6  2  0
  6  7  1  0
  2  8  1  0
  8  9  1  1
  8 10  1  0
 10 11  2  0
 11 12  1  0
 12 13  1  0
 13 14  2  0
  7  3  1  0
 14 10  1  0
M  END
>  <inchikey>  (269) 
SXOGVDBVKGQESR-UHFFFAOYSA-N

>  <alias>  (269) 
N[C@@H](c1ncc[nH]1)[C@@H](O)c1cscn1

>  <tags>  (269) 
{'openbind_xx01zvns2b_c1_knitwork_pure', 'fragmenstein_placed'}

>  <HIPPO Pose ID>  (269) 
43786

>  <ref_pdb>  (269) 
41

>  <smiles>  (269) 
C5172-P29

>  <fragmenstein_runtime>  (269) 
1.348254

>  <fragmenstein_outcome>  (269) 
acceptable

>  <fragmenstein_mode>  (269) 
expansion

>  <fragmenstein_error>  (269) 


>  <HIPPO Compound ID>  (269) 
9007

>  <Energy>  (269) 
54.37915

>  <scratch_subdir>  (269) 
/opt/xchem-fragalysis-2/maxwin/BulkDock/SCRATCH/511031/C5172-P29

$$$$
COc1csc(C(=O)c2c[nH]cn2)n1
     RDKit          3D

 14 15  0  0  0  0  0  0  0  0999 V2000
  -10.4853    4.3556  -18.0088 C   0  0  0  0  0  0  0  0  0  0  0  0
   -9.4301    3.8585  -17.1967 O   0  0  0  0  0  0  0  0  0  0  0  0
   -8.2439    4.4861  -17.3941 C   0  0  0  0  0  0  0  0  0  0  0  0
   -7.7285    4.7591  -18.6424 C   0  0  0  0  0  0  0  0  0  0  0  0
   -6.2490    5.5743  -18.4983 S   0  0  0  0  0  0  0  0  0  0  0  0
   -6.2433    5.2486  -16.8116 C   0  0  0  0  0  0  0  0  0  0  0  0
   -5.0889    5.5392  -15.9603 C   0  0  0  0  0  0  0  0  0  0  0  0
   -5.1854    5.8210  -14.7645 O   0  0  0  0  0  0  0  0  0  0  0  0
   -3.7525    5.5027  -16.5952 C   0  0  0  0  0  0  0  0  0  0  0  0
   -2.5868    6.0174  -16.0503 C   0  0  0  0  0  0  0  0  0  0  0  0
   -1.6056    5.8000  -16.9785 N   0  0  0  0  0  0  0  0  0  0  0  0
   -2.1749    5.1502  -18.0341 C   0  0  0  0  0  0  0  0  0  0  0  0
   -3.4502    4.9322  -17.8231 N   0  0  0  0  0  0  0  0  0  0  0  0
   -7.4033    4.8119  -16.3407 N   0  0  0  0  0  0  0  0  0  0  0  0
  1  2  1  0
  2  3  1  0
  3  4  2  0
  4  5  1  0
  5  6  1  0
  6  7  1  0
  7  8  2  0
  7  9  1  0
  9 10  2  0
 10 11  1  0
 11 12  1  0
 12 13  2  0
  6 14  2  0
 14  3  1  0
 13  9  1  0
M  END
>  <inchikey>  (270) 
AWQSWVZHQZEYNU-UHFFFAOYSA-N

>  <alias>  (270) 
COc1csc(C(=O)c2c[nH]cn2)n1

>  <tags>  (270) 
{'openbind_xx01zvns2b_c1_knitwork_pure', 'fragmenstein_placed'}

>  <HIPPO Pose ID>  (270) 
43837

>  <ref_pdb>  (270) 
41

>  <smiles>  (270) 
C5262-P29

>  <fragmenstein_runtime>  (270) 
0.647375

>  <fragmenstein_outcome>  (270) 
acceptable

>  <fragmenstein_mode>  (270) 
expansion

>  <fragmenstein_error>  (270) 


>  <HIPPO Compound ID>  (270) 
5065

>  <Energy>  (270) 
83.213188

>  <scratch_subdir>  (270) 
/opt/xchem-fragalysis-2/maxwin/BulkDock/SCRATCH/511031/C5262-P29

$$$$
CCCCCc1c(C)[nH]n(-c2nc3ccccc3[nH]2)c1=O
     RDKit          3D

 21 23  0  0  0  0  0  0  0  0999 V2000
   -6.0754    5.3266  -17.9003 C   0  0  0  0  0  0  0  0  0  0  0  0
   -5.9367    5.9943  -19.2547 C   0  0  0  0  0  0  0  0  0  0  0  0
   -4.5783    6.6836  -19.4317 C   0  0  0  0  0  0  0  0  0  0  0  0
   -4.5931    7.7935  -20.4961 C   0  0  0  0  0  0  0  0  0  0  0  0
   -4.8189    7.2939  -21.9208 C   0  0  0  0  0  0  0  0  0  0  0  0
   -5.0787    8.3035  -22.9860 C   0  0  0  0  0  0  0  0  0  0  0  0
   -5.2442    9.6354  -23.0338 C   0  0  0  0  0  0  0  0  0  0  0  0
   -5.0191   10.6162  -21.9383 C   0  0  0  0  0  0  0  0  0  0  0  0
   -5.6727   10.0869  -24.2807 N   0  0  0  0  0  0  0  0  0  0  0  0
   -5.6525    8.9662  -25.1325 N   0  0  0  0  0  0  0  0  0  0  0  0
   -6.5842    8.7791  -26.1298 C   0  0  0  0  0  0  0  0  0  0  0  0
   -6.7028    7.7492  -26.9329 N   0  0  0  0  0  0  0  0  0  0  0  0
   -7.9419    7.8568  -27.4965 C   0  0  0  0  0  0  0  0  0  0  0  0
   -8.6209    6.9558  -28.3236 C   0  0  0  0  0  0  0  0  0  0  0  0
   -9.9260    7.2657  -28.7123 C   0  0  0  0  0  0  0  0  0  0  0  0
  -10.5429    8.4391  -28.2724 C   0  0  0  0  0  0  0  0  0  0  0  0
   -9.8728    9.3631  -27.4595 C   0  0  0  0  0  0  0  0  0  0  0  0
   -8.5628    9.0383  -27.1047 C   0  0  0  0  0  0  0  0  0  0  0  0
   -7.6160    9.6631  -26.3314 N   0  0  0  0  0  0  0  0  0  0  0  0
   -5.2592    7.8367  -24.3977 C   0  0  0  0  0  0  0  0  0  0  0  0
   -5.0726    6.6819  -24.7395 O   0  0  0  0  0  0  0  0  0  0  0  0
  1  2  1  0
  2  3  1  0
  3  4  1  0
  4  5  1  0
  5  6  1  0
  6  7  2  0
  7  8  1  0
  7  9  1  0
  9 10  1  0
 10 11  1  0
 11 12  2  0
 12 13  1  0
 13 14  2  0
 14 15  1  0
 15 16  2  0
 16 17  1  0
 17 18  2  0
 18 19  1  0
 10 20  1  0
 20 21  2  0
 20  6  1  0
 19 11  1  0
 18 13  1  0
M  END
>  <inchikey>  (271) 
MHJILMCNBKAICW-UHFFFAOYSA-N

>  <alias>  (271) 
CCCCCc1c(C)[nH]n(-c2nc3ccccc3[nH]2)c1=O

>  <tags>  (271) 
{'openbind_xx01zvns2b_c1_knitwork_pure', 'fragmenstein_placed'}

>  <HIPPO Pose ID>  (271) 
43866

>  <ref_pdb>  (271) 
41

>  <smiles>  (271) 
C51335-P32

>  <fragmenstein_runtime>  (271) 
2.862812

>  <fragmenstein_outcome>  (271) 
acceptable

>  <fragmenstein_mode>  (271) 
expansion

>  <fragmenstein_error>  (271) 


>  <HIPPO Compound ID>  (271) 
11245

>  <Energy>  (271) 
55.172271

>  <scratch_subdir>  (271) 
/opt/xchem-fragalysis-2/maxwin/BulkDock/SCRATCH/511031/C51335-P32

$$$$
Fc1cnccc1NCc1cnc2ccccc2c1
     RDKit          3D

 19 21  0  0  0  0  0  0  0  0999 V2000
   -4.2926    5.3510  -15.5028 F   0  0  0  0  0  0  0  0  0  0  0  0
   -5.2359    5.1606  -16.4386 C   0  0  0  0  0  0  0  0  0  0  0  0
   -4.9024    5.2362  -17.7754 C   0  0  0  0  0  0  0  0  0  0  0  0
   -5.7920    5.0683  -18.7701 N   0  0  0  0  0  0  0  0  0  0  0  0
   -7.0647    4.7896  -18.3990 C   0  0  0  0  0  0  0  0  0  0  0  0
   -7.4907    4.7085  -17.0773 C   0  0  0  0  0  0  0  0  0  0  0  0
   -6.5610    4.9194  -16.0600 C   0  0  0  0  0  0  0  0  0  0  0  0
   -6.8736    4.8175  -14.6972 N   0  0  0  0  0  0  0  0  0  0  0  0
   -8.0844    5.4648  -14.2152 C   0  0  0  0  0  0  0  0  0  0  0  0
   -8.1269    5.3338  -12.7195 C   0  0  0  0  0  0  0  0  0  0  0  0
   -7.9430    6.4076  -11.8609 C   0  0  0  0  0  0  0  0  0  0  0  0
   -7.9404    6.3199  -10.5061 N   0  0  0  0  0  0  0  0  0  0  0  0
   -8.1354    5.1047   -9.9496 C   0  0  0  0  0  0  0  0  0  0  0  0
   -8.1390    4.9336   -8.5654 C   0  0  0  0  0  0  0  0  0  0  0  0
   -8.3480    3.6821   -7.9666 C   0  0  0  0  0  0  0  0  0  0  0  0
   -8.5728    2.5735   -8.7640 C   0  0  0  0  0  0  0  0  0  0  0  0
   -8.5732    2.7233  -10.1458 C   0  0  0  0  0  0  0  0  0  0  0  0
   -8.3408    3.9639  -10.7402 C   0  0  0  0  0  0  0  0  0  0  0  0
   -8.3187    4.0885  -12.1305 C   0  0  0  0  0  0  0  0  0  0  0  0
  1  2  1  0
  2  3  2  0
  3  4  1  0
  4  5  2  0
  5  6  1  0
  6  7  2  0
  7  8  1  0
  8  9  1  0
  9 10  1  0
 10 11  2  0
 11 12  1  0
 12 13  2  0
 13 14  1  0
 14 15  2  0
 15 16  1  0
 16 17  2  0
 17 18  1  0
 18 19  2  0
  7  2  1  0
 19 10  1  0
 18 13  1  0
M  END
>  <inchikey>  (272) 
WCXFRXGQPBBJFM-UHFFFAOYSA-N

>  <alias>  (272) 
Fc1cnccc1NCc1cnc2ccccc2c1

>  <tags>  (272) 
{'openbind_xx01zvns2b_c1_knitwork_pure', 'fragmenstein_placed'}

>  <HIPPO Pose ID>  (272) 
44078

>  <ref_pdb>  (272) 
41

>  <smiles>  (272) 
C879-P84

>  <fragmenstein_runtime>  (272) 
1.365116

>  <fragmenstein_outcome>  (272) 
acceptable

>  <fragmenstein_mode>  (272) 
expansion

>  <fragmenstein_error>  (272) 


>  <HIPPO Compound ID>  (272) 
5866

>  <Energy>  (272) 
74.169035

>  <scratch_subdir>  (272) 
/opt/xchem-fragalysis-2/maxwin/BulkDock/SCRATCH/511031/C879-P84

$$$$
O=S(=O)(NCc1cccn2ccnc12)c1ccnc2ccccc12
     RDKit          3D

 24 27  0  0  0  0  0  0  0  0999 V2000
   -5.8956    5.5609  -12.1216 O   0  0  0  0  0  0  0  0  0  0  0  0
   -6.8460    6.0067  -13.1179 S   0  0  0  0  0  0  0  0  0  0  0  0
   -7.1606    7.4126  -13.2247 O   0  0  0  0  0  0  0  0  0  0  0  0
   -8.2924    5.2358  -12.8292 N   0  0  0  0  0  0  0  0  0  0  0  0
   -8.3276    3.7768  -12.9076 C   0  0  0  0  0  0  0  0  0  0  0  0
   -7.5608    3.1337  -11.8137 C   0  0  0  0  0  0  0  0  0  0  0  0
   -6.5901    2.2315  -12.0951 C   0  0  0  0  0  0  0  0  0  0  0  0
   -5.8897    1.5076  -11.0529 C   0  0  0  0  0  0  0  0  0  0  0  0
   -6.2733    1.6966   -9.7819 C   0  0  0  0  0  0  0  0  0  0  0  0
   -7.2762    2.6122   -9.4899 N   0  0  0  0  0  0  0  0  0  0  0  0
   -7.8465    2.9657   -8.2968 C   0  0  0  0  0  0  0  0  0  0  0  0
   -8.6054    4.0765   -8.5671 C   0  0  0  0  0  0  0  0  0  0  0  0
   -8.6139    4.3564   -9.9073 N   0  0  0  0  0  0  0  0  0  0  0  0
   -7.8685    3.4102  -10.4464 C   0  0  0  0  0  0  0  0  0  0  0  0
   -6.2115    5.5012  -14.6963 C   0  0  0  0  0  0  0  0  0  0  0  0
   -4.8134    5.5209  -14.7670 C   0  0  0  0  0  0  0  0  0  0  0  0
   -4.2188    5.2247  -15.9657 C   0  0  0  0  0  0  0  0  0  0  0  0
   -4.9115    4.9173  -17.0729 N   0  0  0  0  0  0  0  0  0  0  0  0
   -6.2547    4.8651  -17.0066 C   0  0  0  0  0  0  0  0  0  0  0  0
   -6.9304    4.5343  -18.1727 C   0  0  0  0  0  0  0  0  0  0  0  0
   -8.3161    4.3952  -18.2193 C   0  0  0  0  0  0  0  0  0  0  0  0
   -9.0577    4.6182  -17.0761 C   0  0  0  0  0  0  0  0  0  0  0  0
   -8.4084    5.0341  -15.9114 C   0  0  0  0  0  0  0  0  0  0  0  0
   -6.9910    5.1406  -15.8299 C   0  0  0  0  0  0  0  0  0  0  0  0
  1  2  2  0
  2  3  2  0
  2  4  1  0
  4  5  1  0
  5  6  1  0
  6  7  2  0
  7  8  1  0
  8  9  2  0
  9 10  1  0
 10 11  1  0
 11 12  2  0
 12 13  1  0
 13 14  2  0
  2 15  1  0
 15 16  2  0
 16 17  1  0
 17 18  2  0
 18 19  1  0
 19 20  2  0
 20 21  1  0
 21 22  2  0
 22 23  1  0
 23 24  2  0
 14  6  1  0
 24 15  1  0
 14 10  1  0
 24 19  1  0
M  END
>  <inchikey>  (273) 
VLPGWFCVXSFWLO-UHFFFAOYSA-N

>  <alias>  (273) 
O=S(=O)(NCc1cccn2ccnc12)c1ccnc2ccccc12

>  <tags>  (273) 
{'openbind_xx01zvns2b_c1_knitwork_pure', 'fragmenstein_placed'}

>  <HIPPO Pose ID>  (273) 
44110

>  <ref_pdb>  (273) 
41

>  <smiles>  (273) 
C51317-P84

>  <fragmenstein_runtime>  (273) 
1.60431

>  <fragmenstein_outcome>  (273) 
acceptable

>  <fragmenstein_mode>  (273) 
expansion

>  <fragmenstein_error>  (273) 


>  <HIPPO Compound ID>  (273) 
9558

>  <Energy>  (273) 
-26.941634

>  <scratch_subdir>  (273) 
/opt/xchem-fragalysis-2/maxwin/BulkDock/SCRATCH/511031/C51317-P84

$$$$
N#Cc1cnccc1NCc1cncnc1
     RDKit          3D

 16 17  0  0  0  0  0  0  0  0999 V2000
   -7.4818    4.8736  -13.7160 N   0  0  0  0  0  0  0  0  0  0  0  0
   -7.6572    4.7947  -14.8615 C   0  0  0  0  0  0  0  0  0  0  0  0
   -7.8885    4.6546  -16.2647 C   0  0  0  0  0  0  0  0  0  0  0  0
   -9.0698    4.0470  -16.6637 C   0  0  0  0  0  0  0  0  0  0  0  0
   -9.4417    3.8418  -17.9447 N   0  0  0  0  0  0  0  0  0  0  0  0
   -8.5837    4.2712  -18.8875 C   0  0  0  0  0  0  0  0  0  0  0  0
   -7.3805    4.8978  -18.5974 C   0  0  0  0  0  0  0  0  0  0  0  0
   -7.0087    5.1030  -17.2608 C   0  0  0  0  0  0  0  0  0  0  0  0
   -5.7938    5.7834  -16.9960 N   0  0  0  0  0  0  0  0  0  0  0  0
   -4.8094    5.0143  -16.2283 C   0  0  0  0  0  0  0  0  0  0  0  0
   -4.3201    5.7771  -15.0397 C   0  0  0  0  0  0  0  0  0  0  0  0
   -3.7585    7.0325  -15.1274 C   0  0  0  0  0  0  0  0  0  0  0  0
   -3.2321    7.6981  -14.0791 N   0  0  0  0  0  0  0  0  0  0  0  0
   -3.2944    7.0704  -12.8966 C   0  0  0  0  0  0  0  0  0  0  0  0
   -3.8078    5.8535  -12.6815 N   0  0  0  0  0  0  0  0  0  0  0  0
   -4.3163    5.2362  -13.7672 C   0  0  0  0  0  0  0  0  0  0  0  0
  1  2  3  0
  2  3  1  0
  3  4  2  0
  4  5  1  0
  5  6  2  0
  6  7  1  0
  7  8  2  0
  8  9  1  0
  9 10  1  0
 10 11  1  0
 11 12  2  0
 12 13  1  0
 13 14  2  0
 14 15  1  0
 15 16  2  0
  8  3  1  0
 16 11  1  0
M  END
>  <inchikey>  (274) 
SDTXSIVGLMRFBC-UHFFFAOYSA-N

>  <alias>  (274) 
N#Cc1cnccc1NCc1cncnc1

>  <tags>  (274) 
{'openbind_xx01zvns2b_c1_knitwork_pure', 'fragmenstein_placed'}

>  <HIPPO Pose ID>  (274) 
44163

>  <ref_pdb>  (274) 
41

>  <smiles>  (274) 
C3271-P95

>  <fragmenstein_runtime>  (274) 
1.889659

>  <fragmenstein_outcome>  (274) 
acceptable

>  <fragmenstein_mode>  (274) 
expansion

>  <fragmenstein_error>  (274) 


>  <HIPPO Compound ID>  (274) 
56430

>  <Energy>  (274) 
32.879431

>  <scratch_subdir>  (274) 
/opt/xchem-fragalysis-2/maxwin/BulkDock/SCRATCH/511031/C3271-P95

$$$$
CC[C@@H](N[C@H](C)CCc1c[nH]c2ccccc12)c1nccs1
     RDKit          3D

 22 24  0  0  0  0  0  0  0  0999 V2000
   -5.1309    8.8698  -20.1266 C   0  0  0  0  0  0  0  0  0  0  0  0
   -3.6677    9.1973  -20.3380 C   0  0  0  0  0  0  0  0  0  0  0  0
   -2.8317    8.2704  -21.2377 C   0  0  1  0  0  0  0  0  0  0  0  0
   -2.1319    7.1308  -20.6289 N   0  0  0  0  0  0  0  0  0  0  0  0
   -2.7736    6.1334  -19.7833 C   0  0  2  0  0  0  0  0  0  0  0  0
   -3.7592    5.2810  -20.5806 C   0  0  0  0  0  0  0  0  0  0  0  0
   -3.3173    6.6970  -18.4556 C   0  0  0  0  0  0  0  0  0  0  0  0
   -3.4060    5.6507  -17.3496 C   0  0  0  0  0  0  0  0  0  0  0  0
   -4.6635    5.7203  -16.5401 C   0  0  0  0  0  0  0  0  0  0  0  0
   -4.7734    6.1215  -15.2227 C   0  0  0  0  0  0  0  0  0  0  0  0
   -6.0484    5.8549  -14.7995 N   0  0  0  0  0  0  0  0  0  0  0  0
   -6.7870    5.3124  -15.8230 C   0  0  0  0  0  0  0  0  0  0  0  0
   -8.1023    4.8343  -15.8330 C   0  0  0  0  0  0  0  0  0  0  0  0
   -8.6102    4.3462  -17.0403 C   0  0  0  0  0  0  0  0  0  0  0  0
   -7.8376    4.3491  -18.1940 C   0  0  0  0  0  0  0  0  0  0  0  0
   -6.5180    4.8063  -18.1562 C   0  0  0  0  0  0  0  0  0  0  0  0
   -5.9669    5.2821  -16.9493 C   0  0  0  0  0  0  0  0  0  0  0  0
   -3.4091    8.0130  -22.6219 C   0  0  0  0  0  0  0  0  0  0  0  0
   -4.6820    8.0241  -22.9693 N   0  0  0  0  0  0  0  0  0  0  0  0
   -4.8012    7.8570  -24.3353 C   0  0  0  0  0  0  0  0  0  0  0  0
   -3.6196    7.7112  -25.0253 C   0  0  0  0  0  0  0  0  0  0  0  0
   -2.3068    7.7586  -23.9362 S   0  0  0  0  0  0  0  0  0  0  0  0
  1  2  1  0
  3  2  1  1
  3  4  1  0
  4  5  1  0
  5  6  1  6
  5  7  1  0
  7  8  1  0
  8  9  1  0
  9 10  2  0
 10 11  1  0
 11 12  1  0
 12 13  2  0
 13 14  1  0
 14 15  2  0
 15 16  1  0
 16 17  2  0
  3 18  1  0
 18 19  2  0
 19 20  1  0
 20 21  2  0
 21 22  1  0
 17  9  1  0
 22 18  1  0
 17 12  1  0
M  END
>  <inchikey>  (275) 
VLHLVPULLCZMLS-UHFFFAOYSA-N

>  <alias>  (275) 
CC[C@@H](N[C@H](C)CCc1c[nH]c2ccccc12)c1nccs1

>  <tags>  (275) 
{'openbind_xx01zvns2b_c1_knitwork_pure', 'fragmenstein_placed'}

>  <HIPPO Pose ID>  (275) 
44355

>  <ref_pdb>  (275) 
41

>  <smiles>  (275) 
C14639-P71

>  <fragmenstein_runtime>  (275) 
7.509897

>  <fragmenstein_outcome>  (275) 
acceptable

>  <fragmenstein_mode>  (275) 
expansion

>  <fragmenstein_error>  (275) 


>  <HIPPO Compound ID>  (275) 
116809

>  <Energy>  (275) 
64.007834

>  <scratch_subdir>  (275) 
/opt/xchem-fragalysis-2/maxwin/BulkDock/SCRATCH/511031/C14639-P71

$$$$
C[C@H](CN)c1cc(Cl)c2[nH]ccc2c1
     RDKit          3D

 14 15  0  0  0  0  0  0  0  0999 V2000
   -6.5312    5.9448  -12.5819 C   0  0  0  0  0  0  0  0  0  0  0  0
   -7.6198    5.0620  -13.2062 C   0  0  2  0  0  0  0  0  0  0  0  0
   -7.7653    3.7518  -12.4072 C   0  0  0  0  0  0  0  0  0  0  0  0
   -8.2424    3.9623  -11.0371 N   0  0  0  0  0  0  0  0  0  0  0  0
   -7.4398    4.8156  -14.7037 C   0  0  0  0  0  0  0  0  0  0  0  0
   -6.2497    5.0807  -15.3930 C   0  0  0  0  0  0  0  0  0  0  0  0
   -6.1614    4.9559  -16.7871 C   0  0  0  0  0  0  0  0  0  0  0  0
   -4.6966    5.3572  -17.5881 Cl  0  0  0  0  0  0  0  0  0  0  0  0
   -7.2925    4.5439  -17.4956 C   0  0  0  0  0  0  0  0  0  0  0  0
   -7.5164    4.3868  -18.8464 N   0  0  0  0  0  0  0  0  0  0  0  0
   -8.8052    3.9779  -19.0612 C   0  0  0  0  0  0  0  0  0  0  0  0
   -9.4292    3.8638  -17.8434 C   0  0  0  0  0  0  0  0  0  0  0  0
   -8.4843    4.2234  -16.8450 C   0  0  0  0  0  0  0  0  0  0  0  0
   -8.5467    4.3566  -15.4436 C   0  0  0  0  0  0  0  0  0  0  0  0
  2  1  1  1
  2  3  1  0
  3  4  1  0
  2  5  1  0
  5  6  2  0
  6  7  1  0
  7  8  1  0
  7  9  2  0
  9 10  1  0
 10 11  1  0
 11 12  2  0
 12 13  1  0
 13 14  2  0
 14  5  1  0
 13  9  1  0
M  END
>  <inchikey>  (276) 
LBPIVQFCUYBHRQ-UHFFFAOYSA-N

>  <alias>  (276) 
C[C@H](CN)c1cc(Cl)c2[nH]ccc2c1

>  <tags>  (276) 
{'openbind_xx01zvns2b_c1_knitwork_pure', 'fragmenstein_placed'}

>  <HIPPO Pose ID>  (276) 
44363

>  <ref_pdb>  (276) 
41

>  <smiles>  (276) 
C115838-P188

>  <fragmenstein_runtime>  (276) 
0.898491

>  <fragmenstein_outcome>  (276) 
acceptable

>  <fragmenstein_mode>  (276) 
expansion

>  <fragmenstein_error>  (276) 


>  <HIPPO Compound ID>  (276) 
55296

>  <Energy>  (276) 
33.595525

>  <scratch_subdir>  (276) 
/opt/xchem-fragalysis-2/maxwin/BulkDock/SCRATCH/511031/C115838-P188

$$$$
C[C@H](CN)c1cc(Cl)c2c(ccn2C)c1
     RDKit          3D

 15 16  0  0  0  0  0  0  0  0999 V2000
   -6.7113    5.9998  -12.4360 C   0  0  0  0  0  0  0  0  0  0  0  0
   -7.7151    5.0499  -13.1040 C   0  0  2  0  0  0  0  0  0  0  0  0
   -7.7882    3.7198  -12.3327 C   0  0  0  0  0  0  0  0  0  0  0  0
   -8.2900    3.8845  -10.9666 N   0  0  0  0  0  0  0  0  0  0  0  0
   -7.4631    4.8352  -14.5921 C   0  0  0  0  0  0  0  0  0  0  0  0
   -6.2449    5.1259  -15.2089 C   0  0  0  0  0  0  0  0  0  0  0  0
   -6.0690    5.0188  -16.5958 C   0  0  0  0  0  0  0  0  0  0  0  0
   -4.5409    5.4844  -17.2359 Cl  0  0  0  0  0  0  0  0  0  0  0  0
   -7.1472    4.5821  -17.3850 C   0  0  0  0  0  0  0  0  0  0  0  0
   -8.3705    4.2409  -16.7914 C   0  0  0  0  0  0  0  0  0  0  0  0
   -9.2643    3.8542  -17.8243 C   0  0  0  0  0  0  0  0  0  0  0  0
   -8.5871    3.9609  -19.0123 C   0  0  0  0  0  0  0  0  0  0  0  0
   -7.3150    4.3962  -18.7438 N   0  0  0  0  0  0  0  0  0  0  0  0
   -6.3361    4.6526  -19.7725 C   0  0  0  0  0  0  0  0  0  0  0  0
   -8.5154    4.3669  -15.3954 C   0  0  0  0  0  0  0  0  0  0  0  0
  2  1  1  1
  2  3  1  0
  3  4  1  0
  2  5  1  0
  5  6  2  0
  6  7  1  0
  7  8  1  0
  7  9  2  0
  9 10  1  0
 10 11  1  0
 11 12  2  0
 12 13  1  0
 13 14  1  0
 10 15  2  0
 15  5  1  0
 13  9  1  0
M  END
>  <inchikey>  (277) 
FJDSUNBAZHDQAY-UHFFFAOYSA-N

>  <alias>  (277) 
C[C@H](CN)c1cc(Cl)c2c(ccn2C)c1

>  <tags>  (277) 
{'openbind_xx01zvns2b_c1_knitwork_pure', 'fragmenstein_placed'}

>  <HIPPO Pose ID>  (277) 
44365

>  <ref_pdb>  (277) 
41

>  <smiles>  (277) 
C115841-P188

>  <fragmenstein_runtime>  (277) 
1.131129

>  <fragmenstein_outcome>  (277) 
acceptable

>  <fragmenstein_mode>  (277) 
expansion

>  <fragmenstein_error>  (277) 


>  <HIPPO Compound ID>  (277) 
9461

>  <Energy>  (277) 
39.123863

>  <scratch_subdir>  (277) 
/opt/xchem-fragalysis-2/maxwin/BulkDock/SCRATCH/511031/C115841-P188

$$$$
c1ccc2c(N3CCC[C@H]3c3cn[nH]c3)ccnc2c1
     RDKit          3D

 20 23  0  0  0  0  0  0  0  0999 V2000
   -8.3601    4.2513  -17.6951 C   0  0  0  0  0  0  0  0  0  0  0  0
   -8.8663    4.1541  -16.4114 C   0  0  0  0  0  0  0  0  0  0  0  0
   -8.0810    4.5205  -15.3135 C   0  0  0  0  0  0  0  0  0  0  0  0
   -6.7451    4.9764  -15.4601 C   0  0  0  0  0  0  0  0  0  0  0  0
   -5.8297    5.3083  -14.4005 C   0  0  0  0  0  0  0  0  0  0  0  0
   -5.9745    4.9941  -13.0247 N   0  0  0  0  0  0  0  0  0  0  0  0
   -4.7306    5.0800  -12.1892 C   0  0  0  0  0  0  0  0  0  0  0  0
   -4.7343    3.8874  -11.2418 C   0  0  0  0  0  0  0  0  0  0  0  0
   -5.5645    2.8848  -12.0142 C   0  0  0  0  0  0  0  0  0  0  0  0
   -6.7069    3.7707  -12.5768 C   0  0  1  0  0  0  0  0  0  0  0  0
   -7.6958    3.9898  -11.4660 C   0  0  0  0  0  0  0  0  0  0  0  0
   -7.9079    5.1665  -10.7152 C   0  0  0  0  0  0  0  0  0  0  0  0
   -8.6373    4.9520   -9.6194 N   0  0  0  0  0  0  0  0  0  0  0  0
   -8.9678    3.6481   -9.7122 N   0  0  0  0  0  0  0  0  0  0  0  0
   -8.4639    3.0423  -10.8229 C   0  0  0  0  0  0  0  0  0  0  0  0
   -4.7004    6.0474  -14.7964 C   0  0  0  0  0  0  0  0  0  0  0  0
   -4.3807    6.1983  -16.1277 C   0  0  0  0  0  0  0  0  0  0  0  0
   -5.1277    5.7218  -17.1241 N   0  0  0  0  0  0  0  0  0  0  0  0
   -6.2949    5.1570  -16.8028 C   0  0  0  0  0  0  0  0  0  0  0  0
   -7.0856    4.7711  -17.8751 C   0  0  0  0  0  0  0  0  0  0  0  0
  1  2  2  0
  2  3  1  0
  3  4  2  0
  4  5  1  0
  5  6  1  0
  6  7  1  0
  7  8  1  0
  8  9  1  0
  9 10  1  0
 10 11  1  1
 11 12  1  0
 12 13  2  0
 13 14  1  0
 14 15  1  0
  5 16  2  0
 16 17  1  0
 17 18  2  0
 18 19  1  0
 19 20  2  0
 20  1  1  0
 19  4  1  0
 10  6  1  0
 15 11  2  0
M  END
>  <inchikey>  (278) 
RJVMRFMXOHRTEV-UHFFFAOYSA-N

>  <alias>  (278) 
c1ccc2c(N3CCC[C@H]3c3cn[nH]c3)ccnc2c1

>  <tags>  (278) 
{'openbind_xx01zvns2b_c1_knitwork_pure', 'fragmenstein_placed'}

>  <HIPPO Pose ID>  (278) 
44482

>  <ref_pdb>  (278) 
41

>  <smiles>  (278) 
C1023-P77

>  <fragmenstein_runtime>  (278) 
2.014222

>  <fragmenstein_outcome>  (278) 
acceptable

>  <fragmenstein_mode>  (278) 
expansion

>  <fragmenstein_error>  (278) 


>  <HIPPO Compound ID>  (278) 
114044

>  <Energy>  (278) 
72.607054

>  <scratch_subdir>  (278) 
/opt/xchem-fragalysis-2/maxwin/BulkDock/SCRATCH/511031/C1023-P77

$$$$
CCSc1cccnc1C(=O)Nc1cccc2ncccc12
     RDKit          3D

 22 24  0  0  0  0  0  0  0  0999 V2000
   -1.9120    5.8799  -16.1425 C   0  0  0  0  0  0  0  0  0  0  0  0
   -1.8774    5.8053  -17.6592 C   0  0  0  0  0  0  0  0  0  0  0  0
   -3.0818    4.5702  -18.2681 S   0  0  0  0  0  0  0  0  0  0  0  0
   -3.1111    4.9361  -20.0204 C   0  0  0  0  0  0  0  0  0  0  0  0
   -1.8846    5.1333  -20.6706 C   0  0  0  0  0  0  0  0  0  0  0  0
   -1.8353    5.4379  -22.0262 C   0  0  0  0  0  0  0  0  0  0  0  0
   -3.0238    5.5378  -22.7149 C   0  0  0  0  0  0  0  0  0  0  0  0
   -4.2260    5.3190  -22.1529 N   0  0  0  0  0  0  0  0  0  0  0  0
   -4.2620    4.9828  -20.8275 C   0  0  0  0  0  0  0  0  0  0  0  0
   -5.6509    4.5676  -20.3761 C   0  0  0  0  0  0  0  0  0  0  0  0
   -6.3012    3.9370  -21.1204 O   0  0  0  0  0  0  0  0  0  0  0  0
   -5.9791    5.0986  -18.9529 N   0  0  0  0  0  0  0  0  0  0  0  0
   -7.1012    4.8901  -18.1403 C   0  0  0  0  0  0  0  0  0  0  0  0
   -8.2518    4.3323  -18.6927 C   0  0  0  0  0  0  0  0  0  0  0  0
   -9.3436    4.0568  -17.8871 C   0  0  0  0  0  0  0  0  0  0  0  0
   -9.2708    4.3159  -16.5239 C   0  0  0  0  0  0  0  0  0  0  0  0
   -8.1746    4.9126  -15.9376 C   0  0  0  0  0  0  0  0  0  0  0  0
   -8.2342    5.1817  -14.6172 N   0  0  0  0  0  0  0  0  0  0  0  0
   -7.1668    5.7503  -14.0399 C   0  0  0  0  0  0  0  0  0  0  0  0
   -6.0291    6.1011  -14.7308 C   0  0  0  0  0  0  0  0  0  0  0  0
   -5.9829    5.8418  -16.0941 C   0  0  0  0  0  0  0  0  0  0  0  0
   -7.0650    5.2220  -16.7522 C   0  0  0  0  0  0  0  0  0  0  0  0
  1  2  1  0
  2  3  1  0
  3  4  1  0
  4  5  2  0
  5  6  1  0
  6  7  2  0
  7  8  1  0
  8  9  2  0
  9 10  1  0
 10 11  2  0
 10 12  1  0
 12 13  1  0
 13 14  2  0
 14 15  1  0
 15 16  2  0
 16 17  1  0
 17 18  2  0
 18 19  1  0
 19 20  2  0
 20 21  1  0
 21 22  2  0
  9  4  1  0
 22 13  1  0
 22 17  1  0
M  END
>  <inchikey>  (279) 
CYPOFIRFZWWIJF-UHFFFAOYSA-N

>  <alias>  (279) 
CCSc1cccnc1C(=O)Nc1cccc2ncccc12

>  <tags>  (279) 
{'openbind_xx01zvns2b_c1_knitwork_pure', 'fragmenstein_placed'}

>  <HIPPO Pose ID>  (279) 
44733

>  <ref_pdb>  (279) 
41

>  <smiles>  (279) 
C55811-P51

>  <fragmenstein_runtime>  (279) 
3.65622

>  <fragmenstein_outcome>  (279) 
acceptable

>  <fragmenstein_mode>  (279) 
expansion

>  <fragmenstein_error>  (279) 


>  <HIPPO Compound ID>  (279) 
114014

>  <Energy>  (279) 
126.03647

>  <scratch_subdir>  (279) 
/opt/xchem-fragalysis-2/maxwin/BulkDock/SCRATCH/511031/C55811-P51

$$$$
CNc1ncncc1NC(=O)c1ccn2ccnc2c1
     RDKit          3D

 20 22  0  0  0  0  0  0  0  0999 V2000
   -4.1830    6.9615  -17.1330 C   0  0  0  0  0  0  0  0  0  0  0  0
   -5.0897    6.2870  -16.2109 N   0  0  0  0  0  0  0  0  0  0  0  0
   -6.0680    5.5405  -16.9271 C   0  0  0  0  0  0  0  0  0  0  0  0
   -5.8956    5.3362  -18.2452 N   0  0  0  0  0  0  0  0  0  0  0  0
   -6.9031    4.7378  -18.8980 C   0  0  0  0  0  0  0  0  0  0  0  0
   -8.0630    4.3398  -18.3594 N   0  0  0  0  0  0  0  0  0  0  0  0
   -8.1912    4.5365  -17.0326 C   0  0  0  0  0  0  0  0  0  0  0  0
   -7.2046    5.1015  -16.2505 C   0  0  0  0  0  0  0  0  0  0  0  0
   -7.3242    5.2114  -14.8653 N   0  0  0  0  0  0  0  0  0  0  0  0
   -8.5748    5.2068  -13.9654 C   0  0  0  0  0  0  0  0  0  0  0  0
   -9.7056    5.1880  -14.2441 O   0  0  0  0  0  0  0  0  0  0  0  0
   -8.1535    5.1391  -12.5443 C   0  0  0  0  0  0  0  0  0  0  0  0
   -8.0017    6.3347  -11.7265 C   0  0  0  0  0  0  0  0  0  0  0  0
   -7.9154    6.1882  -10.3912 C   0  0  0  0  0  0  0  0  0  0  0  0
   -7.9531    4.9047   -9.8436 N   0  0  0  0  0  0  0  0  0  0  0  0
   -7.9092    4.5074   -8.5324 C   0  0  0  0  0  0  0  0  0  0  0  0
   -7.9670    3.1319   -8.5637 C   0  0  0  0  0  0  0  0  0  0  0  0
   -8.0486    2.6764   -9.8519 N   0  0  0  0  0  0  0  0  0  0  0  0
   -8.0484    3.7484  -10.6070 C   0  0  0  0  0  0  0  0  0  0  0  0
   -8.1643    3.9002  -12.0127 C   0  0  0  0  0  0  0  0  0  0  0  0
  1  2  1  0
  2  3  1  0
  3  4  2  0
  4  5  1  0
  5  6  2  0
  6  7  1  0
  7  8  2  0
  8  9  1  0
  9 10  1  0
 10 11  2  0
 10 12  1  0
 12 13  1  0
 13 14  2  0
 14 15  1  0
 15 16  1  0
 16 17  2  0
 17 18  1  0
 18 19  2  0
 19 20  1  0
  8  3  1  0
 20 12  2  0
 19 15  1  0
M  END
>  <inchikey>  (280) 
AFEVTOYVCMPFJE-UHFFFAOYSA-N

>  <alias>  (280) 
CNc1ncncc1NC(=O)c1ccn2ccnc2c1

>  <tags>  (280) 
{'openbind_xx01zvns2b_c1_knitwork_pure', 'fragmenstein_placed'}

>  <HIPPO Pose ID>  (280) 
44891

>  <ref_pdb>  (280) 
41

>  <smiles>  (280) 
C17268-P52

>  <fragmenstein_runtime>  (280) 
4.462536

>  <fragmenstein_outcome>  (280) 
acceptable

>  <fragmenstein_mode>  (280) 
expansion

>  <fragmenstein_error>  (280) 


>  <HIPPO Compound ID>  (280) 
10165

>  <Energy>  (280) 
22.375453

>  <scratch_subdir>  (280) 
/opt/xchem-fragalysis-2/maxwin/BulkDock/SCRATCH/511031/C17268-P52

$$$$
Cc1nccc(NCc2ccn3ccnc3c2)n1
     RDKit          3D

 18 20  0  0  0  0  0  0  0  0999 V2000
   -4.7063    7.1270  -17.9520 C   0  0  0  0  0  0  0  0  0  0  0  0
   -5.7548    6.0860  -17.7608 C   0  0  0  0  0  0  0  0  0  0  0  0
   -6.1867    5.4558  -18.8550 N   0  0  0  0  0  0  0  0  0  0  0  0
   -7.2096    4.6065  -18.6795 C   0  0  0  0  0  0  0  0  0  0  0  0
   -7.7785    4.3584  -17.4527 C   0  0  0  0  0  0  0  0  0  0  0  0
   -7.2639    5.0490  -16.3746 C   0  0  0  0  0  0  0  0  0  0  0  0
   -7.7540    4.7598  -15.0892 N   0  0  0  0  0  0  0  0  0  0  0  0
   -7.4515    5.7782  -14.0975 C   0  0  0  0  0  0  0  0  0  0  0  0
   -7.7968    5.3279  -12.6958 C   0  0  0  0  0  0  0  0  0  0  0  0
   -7.7456    6.3793  -11.6674 C   0  0  0  0  0  0  0  0  0  0  0  0
   -7.9175    6.0552  -10.3744 C   0  0  0  0  0  0  0  0  0  0  0  0
   -8.1720    4.7305  -10.0379 N   0  0  0  0  0  0  0  0  0  0  0  0
   -8.3447    4.1565   -8.8049 C   0  0  0  0  0  0  0  0  0  0  0  0
   -8.5929    2.8264   -9.0559 C   0  0  0  0  0  0  0  0  0  0  0  0
   -8.5755    2.5721  -10.4023 N   0  0  0  0  0  0  0  0  0  0  0  0
   -8.2888    3.7163  -10.9757 C   0  0  0  0  0  0  0  0  0  0  0  0
   -8.0723    4.0523  -12.3396 C   0  0  0  0  0  0  0  0  0  0  0  0
   -6.2590    5.9293  -16.5242 N   0  0  0  0  0  0  0  0  0  0  0  0
  1  2  1  0
  2  3  2  0
  3  4  1  0
  4  5  2  0
  5  6  1  0
  6  7  1  0
  7  8  1  0
  8  9  1  0
  9 10  1  0
 10 11  2  0
 11 12  1  0
 12 13  1  0
 13 14  2  0
 14 15  1  0
 15 16  2  0
 16 17  1  0
  6 18  2  0
 18  2  1  0
 17  9  2  0
 16 12  1  0
M  END
>  <inchikey>  (281) 
BLBFMAONSOVMOQ-UHFFFAOYSA-N

>  <alias>  (281) 
Cc1nccc(NCc2ccn3ccnc3c2)n1

>  <tags>  (281) 
{'openbind_xx01zvns2b_c1_knitwork_pure', 'fragmenstein_placed'}

>  <HIPPO Pose ID>  (281) 
44892

>  <ref_pdb>  (281) 
41

>  <smiles>  (281) 
C17270-P52

>  <fragmenstein_runtime>  (281) 
5.803763

>  <fragmenstein_outcome>  (281) 
acceptable

>  <fragmenstein_mode>  (281) 
expansion

>  <fragmenstein_error>  (281) 


>  <HIPPO Compound ID>  (281) 
115508

>  <Energy>  (281) 
-30.834945

>  <scratch_subdir>  (281) 
/opt/xchem-fragalysis-2/maxwin/BulkDock/SCRATCH/511031/C17270-P52

$$$$
Cc1nccc(COc2ccn3ccnc3c2)n1
     RDKit          3D

 18 20  0  0  0  0  0  0  0  0999 V2000
   -4.5741    6.9791  -17.7953 C   0  0  0  0  0  0  0  0  0  0  0  0
   -5.6720    5.9812  -17.6601 C   0  0  0  0  0  0  0  0  0  0  0  0
   -6.2366    5.5509  -18.7932 N   0  0  0  0  0  0  0  0  0  0  0  0
   -7.3155    4.7617  -18.6631 C   0  0  0  0  0  0  0  0  0  0  0  0
   -7.8393    4.3976  -17.4474 C   0  0  0  0  0  0  0  0  0  0  0  0
   -7.1679    4.8559  -16.3294 C   0  0  0  0  0  0  0  0  0  0  0  0
   -7.5786    4.3777  -14.9568 C   0  0  0  0  0  0  0  0  0  0  0  0
   -7.8187    5.4850  -14.0800 O   0  0  0  0  0  0  0  0  0  0  0  0
   -7.9672    5.1714  -12.7467 C   0  0  0  0  0  0  0  0  0  0  0  0
   -7.9318    6.3488  -11.8822 C   0  0  0  0  0  0  0  0  0  0  0  0
   -8.0096    6.1968  -10.5480 C   0  0  0  0  0  0  0  0  0  0  0  0
   -8.1391    4.9150  -10.0207 N   0  0  0  0  0  0  0  0  0  0  0  0
   -8.2145    4.5024   -8.7148 C   0  0  0  0  0  0  0  0  0  0  0  0
   -8.3376    3.1323   -8.7705 C   0  0  0  0  0  0  0  0  0  0  0  0
   -8.3388    2.6950  -10.0681 N   0  0  0  0  0  0  0  0  0  0  0  0
   -8.2061    3.7733  -10.8046 C   0  0  0  0  0  0  0  0  0  0  0  0
   -8.1086    3.9361  -12.2133 C   0  0  0  0  0  0  0  0  0  0  0  0
   -6.0818    5.6599  -16.4207 N   0  0  0  0  0  0  0  0  0  0  0  0
  1  2  1  0
  2  3  2  0
  3  4  1  0
  4  5  2  0
  5  6  1  0
  6  7  1  0
  7  8  1  0
  8  9  1  0
  9 10  1  0
 10 11  2  0
 11 12  1  0
 12 13  1  0
 13 14  2  0
 14 15  1  0
 15 16  2  0
 16 17  1  0
  6 18  2  0
 18  2  1  0
 17  9  2  0
 16 12  1  0
M  END
>  <inchikey>  (282) 
RPTDAYIJDQYBDJ-UHFFFAOYSA-N

>  <alias>  (282) 
Cc1nccc(COc2ccn3ccnc3c2)n1

>  <tags>  (282) 
{'openbind_xx01zvns2b_c1_knitwork_pure', 'fragmenstein_placed'}

>  <HIPPO Pose ID>  (282) 
44910

>  <ref_pdb>  (282) 
41

>  <smiles>  (282) 
C17299-P52

>  <fragmenstein_runtime>  (282) 
5.43062

>  <fragmenstein_outcome>  (282) 
acceptable

>  <fragmenstein_mode>  (282) 
expansion

>  <fragmenstein_error>  (282) 


>  <HIPPO Compound ID>  (282) 
48240

>  <Energy>  (282) 
30.134333

>  <scratch_subdir>  (282) 
/opt/xchem-fragalysis-2/maxwin/BulkDock/SCRATCH/511031/C17299-P52

$$$$
COc1cccc2[nH]c(=O)n(-c3cccnc3)c12
     RDKit          3D

 18 20  0  0  0  0  0  0  0  0999 V2000
   -5.3866    5.8915  -14.3791 C   0  0  0  0  0  0  0  0  0  0  0  0
   -5.6333    5.8812  -15.7819 O   0  0  0  0  0  0  0  0  0  0  0  0
   -6.6494    5.0882  -16.2234 C   0  0  0  0  0  0  0  0  0  0  0  0
   -7.7505    4.7534  -15.4164 C   0  0  0  0  0  0  0  0  0  0  0  0
   -8.8652    4.0831  -15.9445 C   0  0  0  0  0  0  0  0  0  0  0  0
   -8.9240    3.7476  -17.2896 C   0  0  0  0  0  0  0  0  0  0  0  0
   -7.8185    4.0473  -18.0487 C   0  0  0  0  0  0  0  0  0  0  0  0
   -7.6554    3.7762  -19.3939 N   0  0  0  0  0  0  0  0  0  0  0  0
   -6.3968    4.2261  -19.8048 C   0  0  0  0  0  0  0  0  0  0  0  0
   -5.9540    4.0580  -20.9348 O   0  0  0  0  0  0  0  0  0  0  0  0
   -5.7684    4.7980  -18.6501 N   0  0  0  0  0  0  0  0  0  0  0  0
   -4.4122    5.2020  -18.6144 C   0  0  0  0  0  0  0  0  0  0  0  0
   -3.7848    5.6815  -19.7692 C   0  0  0  0  0  0  0  0  0  0  0  0
   -2.4218    5.9857  -19.7715 C   0  0  0  0  0  0  0  0  0  0  0  0
   -1.7041    5.8079  -18.6048 C   0  0  0  0  0  0  0  0  0  0  0  0
   -2.2569    5.3675  -17.4601 N   0  0  0  0  0  0  0  0  0  0  0  0
   -3.5827    5.0625  -17.5053 C   0  0  0  0  0  0  0  0  0  0  0  0
   -6.6706    4.6811  -17.5540 C   0  0  0  0  0  0  0  0  0  0  0  0
  1  2  1  0
  2  3  1  0
  3  4  2  0
  4  5  1  0
  5  6  2  0
  6  7  1  0
  7  8  1  0
  8  9  1  0
  9 10  2  0
  9 11  1  0
 11 12  1  0
 12 13  2  0
 13 14  1  0
 14 15  2  0
 15 16  1  0
 16 17  2  0
 11 18  1  0
 18  3  1  0
 18  7  2  0
 17 12  1  0
M  END
>  <inchikey>  (283) 
JIRCFVFOEXIBLA-UHFFFAOYSA-N

>  <alias>  (283) 
COc1cccc2[nH]c(=O)n(-c3cccnc3)c12

>  <tags>  (283) 
{'openbind_xx01zvns2b_c1_knitwork_pure', 'fragmenstein_placed'}

>  <HIPPO Pose ID>  (283) 
44980

>  <ref_pdb>  (283) 
41

>  <smiles>  (283) 
C1345-P268

>  <fragmenstein_runtime>  (283) 
1.132116

>  <fragmenstein_outcome>  (283) 
acceptable

>  <fragmenstein_mode>  (283) 
expansion

>  <fragmenstein_error>  (283) 


>  <HIPPO Compound ID>  (283) 
5694

>  <Energy>  (283) 
55.171853

>  <scratch_subdir>  (283) 
/opt/xchem-fragalysis-2/maxwin/BulkDock/SCRATCH/511031/C1345-P268

$$$$
O=c1[nH]c2cccc(F)c2n1-c1cccnc1
     RDKit          3D

 17 19  0  0  0  0  0  0  0  0999 V2000
   -5.9748    4.0401  -20.9410 O   0  0  0  0  0  0  0  0  0  0  0  0
   -6.4095    4.2046  -19.8082 C   0  0  0  0  0  0  0  0  0  0  0  0
   -7.6751    3.7697  -19.3908 N   0  0  0  0  0  0  0  0  0  0  0  0
   -7.8290    4.0423  -18.0443 C   0  0  0  0  0  0  0  0  0  0  0  0
   -8.9323    3.7696  -17.2669 C   0  0  0  0  0  0  0  0  0  0  0  0
   -8.8541    4.1063  -15.9180 C   0  0  0  0  0  0  0  0  0  0  0  0
   -7.7190    4.7480  -15.4060 C   0  0  0  0  0  0  0  0  0  0  0  0
   -6.6379    5.0437  -16.2391 C   0  0  0  0  0  0  0  0  0  0  0  0
   -5.6366    5.7619  -15.7238 F   0  0  0  0  0  0  0  0  0  0  0  0
   -6.6678    4.6510  -17.5629 C   0  0  0  0  0  0  0  0  0  0  0  0
   -5.7690    4.7635  -18.6535 N   0  0  0  0  0  0  0  0  0  0  0  0
   -4.4234    5.1995  -18.6073 C   0  0  0  0  0  0  0  0  0  0  0  0
   -3.7829    5.6466  -19.7682 C   0  0  0  0  0  0  0  0  0  0  0  0
   -2.4328    6.0026  -19.7515 C   0  0  0  0  0  0  0  0  0  0  0  0
   -1.7406    5.9071  -18.5607 C   0  0  0  0  0  0  0  0  0  0  0  0
   -2.3070    5.4983  -17.4110 N   0  0  0  0  0  0  0  0  0  0  0  0
   -3.6199    5.1448  -17.4700 C   0  0  0  0  0  0  0  0  0  0  0  0
  1  2  2  0
  2  3  1  0
  3  4  1  0
  4  5  2  0
  5  6  1  0
  6  7  2  0
  7  8  1  0
  8  9  1  0
  8 10  2  0
 10 11  1  0
 11 12  1  0
 12 13  2  0
 13 14  1  0
 14 15  2  0
 15 16  1  0
 16 17  2  0
 11  2  1  0
 17 12  1  0
 10  4  1  0
M  END
>  <inchikey>  (284) 
JPFCEEMGXKSOPE-UHFFFAOYSA-N

>  <alias>  (284) 
O=c1[nH]c2cccc(F)c2n1-c1cccnc1

>  <tags>  (284) 
{'openbind_xx01zvns2b_c1_knitwork_pure', 'fragmenstein_placed'}

>  <HIPPO Pose ID>  (284) 
44987

>  <ref_pdb>  (284) 
41

>  <smiles>  (284) 
C1367-P268

>  <fragmenstein_runtime>  (284) 
0.768386

>  <fragmenstein_outcome>  (284) 
acceptable

>  <fragmenstein_mode>  (284) 
expansion

>  <fragmenstein_error>  (284) 


>  <HIPPO Compound ID>  (284) 
114416

>  <Energy>  (284) 
42.19776

>  <scratch_subdir>  (284) 
/opt/xchem-fragalysis-2/maxwin/BulkDock/SCRATCH/511031/C1367-P268

$$$$
COc1cccc2[nH]c(=O)n(-c3ccncc3)c12
     RDKit          3D

 18 20  0  0  0  0  0  0  0  0999 V2000
   -5.2083    5.2950  -14.2972 C   0  0  0  0  0  0  0  0  0  0  0  0
   -5.4205    5.4502  -15.6952 O   0  0  0  0  0  0  0  0  0  0  0  0
   -6.5853    4.9699  -16.2129 C   0  0  0  0  0  0  0  0  0  0  0  0
   -7.7085    4.6645  -15.4261 C   0  0  0  0  0  0  0  0  0  0  0  0
   -8.8609    4.0906  -15.9888 C   0  0  0  0  0  0  0  0  0  0  0  0
   -8.9216    3.7890  -17.3431 C   0  0  0  0  0  0  0  0  0  0  0  0
   -7.8087    4.0897  -18.0915 C   0  0  0  0  0  0  0  0  0  0  0  0
   -7.6031    3.7758  -19.4237 N   0  0  0  0  0  0  0  0  0  0  0  0
   -6.3382    4.2354  -19.8157 C   0  0  0  0  0  0  0  0  0  0  0  0
   -5.8732    4.0814  -20.9383 O   0  0  0  0  0  0  0  0  0  0  0  0
   -5.7670    4.8763  -18.6725 N   0  0  0  0  0  0  0  0  0  0  0  0
   -4.5543    5.6034  -18.6731 C   0  0  0  0  0  0  0  0  0  0  0  0
   -3.4933    5.2203  -19.4973 C   0  0  0  0  0  0  0  0  0  0  0  0
   -2.3173    5.9569  -19.4796 C   0  0  0  0  0  0  0  0  0  0  0  0
   -2.1400    7.0679  -18.7361 N   0  0  0  0  0  0  0  0  0  0  0  0
   -3.1849    7.4495  -17.9780 C   0  0  0  0  0  0  0  0  0  0  0  0
   -4.3918    6.7692  -17.9239 C   0  0  0  0  0  0  0  0  0  0  0  0
   -6.6696    4.7250  -17.5816 C   0  0  0  0  0  0  0  0  0  0  0  0
  1  2  1  0
  2  3  1  0
  3  4  2  0
  4  5  1  0
  5  6  2  0
  6  7  1  0
  7  8  1  0
  8  9  1  0
  9 10  2  0
  9 11  1  0
 11 12  1  0
 12 13  2  0
 13 14  1  0
 14 15  2  0
 15 16  1  0
 16 17  2  0
 11 18  1  0
 18  3  1  0
 18  7  2  0
 17 12  1  0
M  END
>  <inchikey>  (285) 
LIOVJEPANPJSOO-UHFFFAOYSA-N

>  <alias>  (285) 
COc1cccc2[nH]c(=O)n(-c3ccncc3)c12

>  <tags>  (285) 
{'openbind_xx01zvns2b_c1_knitwork_pure', 'fragmenstein_placed'}

>  <HIPPO Pose ID>  (285) 
44991

>  <ref_pdb>  (285) 
41

>  <smiles>  (285) 
C1393-P268

>  <fragmenstein_runtime>  (285) 
0.996488

>  <fragmenstein_outcome>  (285) 
acceptable

>  <fragmenstein_mode>  (285) 
expansion

>  <fragmenstein_error>  (285) 


>  <HIPPO Compound ID>  (285) 
8113

>  <Energy>  (285) 
35.543069

>  <scratch_subdir>  (285) 
/opt/xchem-fragalysis-2/maxwin/BulkDock/SCRATCH/511031/C1393-P268

$$$$
O=C(CSc1nnc2ccccn12)Nc1ncc([C@H]2CCOC2)s1
     RDKit          3D

 24 27  0  0  0  0  0  0  0  0999 V2000
   -3.8723    5.6706  -23.1760 O   0  0  0  0  0  0  0  0  0  0  0  0
   -4.2865    6.2812  -22.2682 C   0  0  0  0  0  0  0  0  0  0  0  0
   -4.1442    5.8090  -20.8214 C   0  0  0  0  0  0  0  0  0  0  0  0
   -5.5967    4.7962  -20.4374 S   0  0  0  0  0  0  0  0  0  0  0  0
   -5.6707    4.9462  -18.7219 C   0  0  0  0  0  0  0  0  0  0  0  0
   -4.6645    5.2707  -17.9409 N   0  0  0  0  0  0  0  0  0  0  0  0
   -5.1210    5.2566  -16.6424 N   0  0  0  0  0  0  0  0  0  0  0  0
   -6.3971    4.9308  -16.6677 C   0  0  0  0  0  0  0  0  0  0  0  0
   -7.3632    4.7557  -15.6402 C   0  0  0  0  0  0  0  0  0  0  0  0
   -8.6392    4.4787  -15.9698 C   0  0  0  0  0  0  0  0  0  0  0  0
   -9.0606    4.3537  -17.3563 C   0  0  0  0  0  0  0  0  0  0  0  0
   -8.1407    4.4772  -18.3286 C   0  0  0  0  0  0  0  0  0  0  0  0
   -6.8153    4.7520  -17.9829 N   0  0  0  0  0  0  0  0  0  0  0  0
   -5.1083    7.6035  -22.2324 N   0  0  0  0  0  0  0  0  0  0  0  0
   -5.6325    8.3409  -23.2411 C   0  0  0  0  0  0  0  0  0  0  0  0
   -6.1403    9.5338  -23.0547 N   0  0  0  0  0  0  0  0  0  0  0  0
   -6.5740   10.0289  -24.2697 C   0  0  0  0  0  0  0  0  0  0  0  0
   -6.5434    9.1491  -25.3366 C   0  0  0  0  0  0  0  0  0  0  0  0
   -7.0138    9.3029  -26.7642 C   0  0  1  0  0  0  0  0  0  0  0  0
   -8.2345    8.4532  -27.0928 C   0  0  0  0  0  0  0  0  0  0  0  0
   -9.4179    9.4089  -27.0746 C   0  0  0  0  0  0  0  0  0  0  0  0
   -8.9121   10.7227  -26.8098 O   0  0  0  0  0  0  0  0  0  0  0  0
   -7.5113   10.7011  -27.1123 C   0  0  0  0  0  0  0  0  0  0  0  0
   -5.7447    7.7074  -24.8151 S   0  0  0  0  0  0  0  0  0  0  0  0
  1  2  2  0
  2  3  1  0
  3  4  1  0
  4  5  1  0
  5  6  2  0
  6  7  1  0
  7  8  2  0
  8  9  1  0
  9 10  2  0
 10 11  1  0
 11 12  2  0
 12 13  1  0
  2 14  1  0
 14 15  1  0
 15 16  2  0
 16 17  1  0
 17 18  2  0
 19 18  1  1
 19 20  1  0
 20 21  1  0
 21 22  1  0
 22 23  1  0
 18 24  1  0
 13  5  1  0
 24 15  1  0
 13  8  1  0
 23 19  1  0
M  END
>  <inchikey>  (286) 
SLPQUYIXGOZBQL-UHFFFAOYSA-N

>  <alias>  (286) 
O=C(CSc1nnc2ccccn12)Nc1ncc([C@H]2CCOC2)s1

>  <tags>  (286) 
{'openbind_xx01zvns2b_c1_knitwork_pure', 'fragmenstein_placed'}

>  <HIPPO Pose ID>  (286) 
45018

>  <ref_pdb>  (286) 
41

>  <smiles>  (286) 
C57122-P41

>  <fragmenstein_runtime>  (286) 
5.115055

>  <fragmenstein_outcome>  (286) 
acceptable

>  <fragmenstein_mode>  (286) 
expansion

>  <fragmenstein_error>  (286) 


>  <HIPPO Compound ID>  (286) 
15916

>  <Energy>  (286) 
44.660165

>  <scratch_subdir>  (286) 
/opt/xchem-fragalysis-2/maxwin/BulkDock/SCRATCH/511031/C57122-P41

$$$$
O=C(NCc1nnc2ccccn12)c1cnc(-c2nn[nH]n2)s1
     RDKit          3D

 23 26  0  0  0  0  0  0  0  0999 V2000
   -3.9874    8.1710  -21.1365 O   0  0  0  0  0  0  0  0  0  0  0  0
   -4.8697    7.5123  -21.5231 C   0  0  0  0  0  0  0  0  0  0  0  0
   -5.4376    6.1747  -20.9806 N   0  0  0  0  0  0  0  0  0  0  0  0
   -4.9764    5.3291  -19.9125 C   0  0  0  0  0  0  0  0  0  0  0  0
   -5.4863    5.6116  -18.5566 C   0  0  0  0  0  0  0  0  0  0  0  0
   -4.7480    6.1400  -17.5966 N   0  0  0  0  0  0  0  0  0  0  0  0
   -5.4088    6.0024  -16.4049 N   0  0  0  0  0  0  0  0  0  0  0  0
   -6.5531    5.4073  -16.6480 C   0  0  0  0  0  0  0  0  0  0  0  0
   -7.6169    5.0067  -15.7957 C   0  0  0  0  0  0  0  0  0  0  0  0
   -8.7235    4.4595  -16.3311 C   0  0  0  0  0  0  0  0  0  0  0  0
   -8.8461    4.2505  -17.7641 C   0  0  0  0  0  0  0  0  0  0  0  0
   -7.8140    4.5744  -18.5637 C   0  0  0  0  0  0  0  0  0  0  0  0
   -6.6771    5.1620  -18.0117 N   0  0  0  0  0  0  0  0  0  0  0  0
   -5.5710    7.8506  -22.7655 C   0  0  0  0  0  0  0  0  0  0  0  0
   -5.8509    6.9502  -23.7690 C   0  0  0  0  0  0  0  0  0  0  0  0
   -6.4868    7.4238  -24.8765 N   0  0  0  0  0  0  0  0  0  0  0  0
   -6.6594    8.7237  -24.7673 C   0  0  0  0  0  0  0  0  0  0  0  0
   -7.5110    9.4951  -25.8669 C   0  0  0  0  0  0  0  0  0  0  0  0
   -7.8166   10.8341  -25.8415 N   0  0  0  0  0  0  0  0  0  0  0  0
   -8.7108   11.0374  -26.8051 N   0  0  0  0  0  0  0  0  0  0  0  0
   -8.8809    9.8342  -27.3686 N   0  0  0  0  0  0  0  0  0  0  0  0
   -8.1467    8.8448  -26.8596 N   0  0  0  0  0  0  0  0  0  0  0  0
   -5.9846    9.4185  -23.3301 S   0  0  0  0  0  0  0  0  0  0  0  0
  1  2  2  0
  2  3  1  0
  3  4  1  0
  4  5  1  0
  5  6  2  0
  6  7  1  0
  7  8  2  0
  8  9  1  0
  9 10  2  0
 10 11  1  0
 11 12  2  0
 12 13  1  0
  2 14  1  0
 14 15  2  0
 15 16  1  0
 16 17  2  0
 17 18  1  0
 18 19  1  0
 19 20  2  0
 20 21  1  0
 21 22  1  0
 17 23  1  0
 13  5  1  0
 23 14  1  0
 13  8  1  0
 22 18  2  0
M  END
>  <inchikey>  (287) 
WRMURXDWWMUBKI-UHFFFAOYSA-N

>  <alias>  (287) 
O=C(NCc1nnc2ccccn12)c1cnc(-c2nn[nH]n2)s1

>  <tags>  (287) 
{'openbind_xx01zvns2b_c1_knitwork_pure', 'fragmenstein_placed'}

>  <HIPPO Pose ID>  (287) 
45024

>  <ref_pdb>  (287) 
41

>  <smiles>  (287) 
C57128-P41

>  <fragmenstein_runtime>  (287) 
2.981765

>  <fragmenstein_outcome>  (287) 
acceptable

>  <fragmenstein_mode>  (287) 
expansion

>  <fragmenstein_error>  (287) 


>  <HIPPO Compound ID>  (287) 
15347

>  <Energy>  (287) 
74.930069

>  <scratch_subdir>  (287) 
/opt/xchem-fragalysis-2/maxwin/BulkDock/SCRATCH/511031/C57128-P41

$$$$
CCCNc1ncnc2ccccc12
     RDKit          3D

 14 15  0  0  0  0  0  0  0  0999 V2000
   -2.3883    4.3568  -14.2449 C   0  0  0  0  0  0  0  0  0  0  0  0
   -3.2751    3.7876  -15.3317 C   0  0  0  0  0  0  0  0  0  0  0  0
   -3.3965    4.7408  -16.5216 C   0  0  0  0  0  0  0  0  0  0  0  0
   -4.1829    5.9347  -16.1955 N   0  0  0  0  0  0  0  0  0  0  0  0
   -5.5326    5.6329  -15.9078 C   0  0  0  0  0  0  0  0  0  0  0  0
   -5.8754    5.6893  -14.6110 N   0  0  0  0  0  0  0  0  0  0  0  0
   -7.1296    5.3396  -14.3099 C   0  0  0  0  0  0  0  0  0  0  0  0
   -8.0796    4.9715  -15.1737 N   0  0  0  0  0  0  0  0  0  0  0  0
   -7.7219    4.9013  -16.4582 C   0  0  0  0  0  0  0  0  0  0  0  0
   -8.6654    4.4884  -17.3868 C   0  0  0  0  0  0  0  0  0  0  0  0
   -8.3534    4.3755  -18.7399 C   0  0  0  0  0  0  0  0  0  0  0  0
   -7.0777    4.6904  -19.1855 C   0  0  0  0  0  0  0  0  0  0  0  0
   -6.1320    5.1509  -18.2862 C   0  0  0  0  0  0  0  0  0  0  0  0
   -6.4359    5.2362  -16.9077 C   0  0  0  0  0  0  0  0  0  0  0  0
  1  2  1  0
  2  3  1  0
  3  4  1  0
  4  5  1  0
  5  6  2  0
  6  7  1  0
  7  8  2  0
  8  9  1  0
  9 10  2  0
 10 11  1  0
 11 12  2  0
 12 13  1  0
 13 14  2  0
 14  5  1  0
 14  9  1  0
M  END
>  <inchikey>  (288) 
BMXHSUIPFBNAMZ-UHFFFAOYSA-N

>  <alias>  (288) 
CCCNc1ncnc2ccccc12

>  <tags>  (288) 
{'openbind_xx01zvns2b_c1_knitwork_pure', 'fragmenstein_placed'}

>  <HIPPO Pose ID>  (288) 
45124

>  <ref_pdb>  (288) 
41

>  <smiles>  (288) 
C107795-P23

>  <fragmenstein_runtime>  (288) 
1.701059

>  <fragmenstein_outcome>  (288) 
acceptable

>  <fragmenstein_mode>  (288) 
expansion

>  <fragmenstein_error>  (288) 


>  <HIPPO Compound ID>  (288) 
116358

>  <Energy>  (288) 
-9.148767

>  <scratch_subdir>  (288) 
/opt/xchem-fragalysis-2/maxwin/BulkDock/SCRATCH/511031/C107795-P23

$$$$
C[C@@H](CN)c1ncnc2ccccc12
     RDKit          3D

 14 15  0  0  0  0  0  0  0  0999 V2000
   -3.6763    7.0888  -16.8817 C   0  0  0  0  0  0  0  0  0  0  0  0
   -3.8263    5.6212  -16.4641 C   0  0  1  0  0  0  0  0  0  0  0  0
   -2.7769    5.2905  -15.3860 C   0  0  0  0  0  0  0  0  0  0  0  0
   -2.8128    3.8853  -14.9757 N   0  0  0  0  0  0  0  0  0  0  0  0
   -5.2669    5.3612  -16.0333 C   0  0  0  0  0  0  0  0  0  0  0  0
   -5.5430    5.4873  -14.7118 N   0  0  0  0  0  0  0  0  0  0  0  0
   -6.8164    5.2812  -14.3472 C   0  0  0  0  0  0  0  0  0  0  0  0
   -7.8379    4.9955  -15.1574 N   0  0  0  0  0  0  0  0  0  0  0  0
   -7.5533    4.8651  -16.4571 C   0  0  0  0  0  0  0  0  0  0  0  0
   -8.5852    4.5515  -17.3292 C   0  0  0  0  0  0  0  0  0  0  0  0
   -8.3642    4.4102  -18.6968 C   0  0  0  0  0  0  0  0  0  0  0  0
   -7.0871    4.5807  -19.2106 C   0  0  0  0  0  0  0  0  0  0  0  0
   -6.0414    4.9107  -18.3644 C   0  0  0  0  0  0  0  0  0  0  0  0
   -6.2596    5.0482  -16.9759 C   0  0  0  0  0  0  0  0  0  0  0  0
  2  1  1  1
  2  3  1  0
  3  4  1  0
  2  5  1  0
  5  6  2  0
  6  7  1  0
  7  8  2  0
  8  9  1  0
  9 10  2  0
 10 11  1  0
 11 12  2  0
 12 13  1  0
 13 14  2  0
 14  5  1  0
 14  9  1  0
M  END
>  <inchikey>  (289) 
BCYRUWSZPDQGBR-UHFFFAOYSA-N

>  <alias>  (289) 
C[C@@H](CN)c1ncnc2ccccc12

>  <tags>  (289) 
{'openbind_xx01zvns2b_c1_knitwork_pure', 'fragmenstein_placed'}

>  <HIPPO Pose ID>  (289) 
45125

>  <ref_pdb>  (289) 
41

>  <smiles>  (289) 
C15577-P23

>  <fragmenstein_runtime>  (289) 
1.170999

>  <fragmenstein_outcome>  (289) 
acceptable

>  <fragmenstein_mode>  (289) 
expansion

>  <fragmenstein_error>  (289) 


>  <HIPPO Compound ID>  (289) 
56096

>  <Energy>  (289) 
31.562943

>  <scratch_subdir>  (289) 
/opt/xchem-fragalysis-2/maxwin/BulkDock/SCRATCH/511031/C15577-P23

$$$$
C[C@H](CNc1ncnc2ccccc12)c1ccncc1
     RDKit          3D

 20 22  0  0  0  0  0  0  0  0999 V2000
   -0.7553    5.6241  -15.5013 C   0  0  0  0  0  0  0  0  0  0  0  0
   -2.0667    6.0278  -16.1752 C   0  0  2  0  0  0  0  0  0  0  0  0
   -3.2739    5.4246  -15.4083 C   0  0  0  0  0  0  0  0  0  0  0  0
   -4.4616    6.1823  -15.7904 N   0  0  0  0  0  0  0  0  0  0  0  0
   -5.6899    5.5614  -15.5588 C   0  0  0  0  0  0  0  0  0  0  0  0
   -5.9989    5.2979  -14.2810 N   0  0  0  0  0  0  0  0  0  0  0  0
   -7.2178    4.7907  -14.0650 C   0  0  0  0  0  0  0  0  0  0  0  0
   -8.1419    4.5188  -14.9913 N   0  0  0  0  0  0  0  0  0  0  0  0
   -7.7877    4.7004  -16.2647 C   0  0  0  0  0  0  0  0  0  0  0  0
   -8.6829    4.3485  -17.2666 C   0  0  0  0  0  0  0  0  0  0  0  0
   -8.3460    4.4430  -18.6159 C   0  0  0  0  0  0  0  0  0  0  0  0
   -7.1068    4.9438  -18.9792 C   0  0  0  0  0  0  0  0  0  0  0  0
   -6.2403    5.3950  -17.9987 C   0  0  0  0  0  0  0  0  0  0  0  0
   -6.5468    5.2356  -16.6274 C   0  0  0  0  0  0  0  0  0  0  0  0
   -2.0614    5.7899  -17.6845 C   0  0  0  0  0  0  0  0  0  0  0  0
   -1.2606    6.5973  -18.5033 C   0  0  0  0  0  0  0  0  0  0  0  0
   -1.3222    6.4639  -19.8872 C   0  0  0  0  0  0  0  0  0  0  0  0
   -2.1548    5.6158  -20.5231 N   0  0  0  0  0  0  0  0  0  0  0  0
   -2.9477    4.8813  -19.7177 C   0  0  0  0  0  0  0  0  0  0  0  0
   -2.8885    4.8757  -18.3296 C   0  0  0  0  0  0  0  0  0  0  0  0
  2  1  1  1
  2  3  1  0
  3  4  1  0
  4  5  1  0
  5  6  2  0
  6  7  1  0
  7  8  2  0
  8  9  1  0
  9 10  2  0
 10 11  1  0
 11 12  2  0
 12 13  1  0
 13 14  2  0
  2 15  1  0
 15 16  2  0
 16 17  1  0
 17 18  2  0
 18 19  1  0
 19 20  2  0
 14  5  1  0
 20 15  1  0
 14  9  1  0
M  END
>  <inchikey>  (290) 
NKIAKRIVQFCTNO-UHFFFAOYSA-N

>  <alias>  (290) 
C[C@H](CNc1ncnc2ccccc12)c1ccncc1

>  <tags>  (290) 
{'openbind_xx01zvns2b_c1_knitwork_pure', 'fragmenstein_placed'}

>  <HIPPO Pose ID>  (290) 
45138

>  <ref_pdb>  (290) 
41

>  <smiles>  (290) 
C116200-P23

>  <fragmenstein_runtime>  (290) 
1.535037

>  <fragmenstein_outcome>  (290) 
acceptable

>  <fragmenstein_mode>  (290) 
expansion

>  <fragmenstein_error>  (290) 


>  <HIPPO Compound ID>  (290) 
113525

>  <Energy>  (290) 
29.408496

>  <scratch_subdir>  (290) 
/opt/xchem-fragalysis-2/maxwin/BulkDock/SCRATCH/511031/C116200-P23

$$$$
NCCCc1coc(-c2ccccn2)n1
     RDKit          3D

 15 16  0  0  0  0  0  0  0  0999 V2000
   -2.8207    6.1867  -19.1649 N   0  0  0  0  0  0  0  0  0  0  0  0
   -3.4201    5.2355  -18.2362 C   0  0  0  0  0  0  0  0  0  0  0  0
   -3.0223    5.5797  -16.8056 C   0  0  0  0  0  0  0  0  0  0  0  0
   -3.5862    4.5761  -15.8130 C   0  0  0  0  0  0  0  0  0  0  0  0
   -5.0103    4.7830  -15.4341 C   0  0  0  0  0  0  0  0  0  0  0  0
   -6.1821    4.7082  -16.1564 C   0  0  0  0  0  0  0  0  0  0  0  0
   -7.2317    4.7635  -15.2792 O   0  0  0  0  0  0  0  0  0  0  0  0
   -6.6262    4.9011  -14.0577 C   0  0  0  0  0  0  0  0  0  0  0  0
   -7.4563    4.7759  -12.8712 C   0  0  0  0  0  0  0  0  0  0  0  0
   -7.9553    3.5308  -12.5069 C   0  0  0  0  0  0  0  0  0  0  0  0
   -8.5222    3.3851  -11.2470 C   0  0  0  0  0  0  0  0  0  0  0  0
   -8.5718    4.4808  -10.3962 C   0  0  0  0  0  0  0  0  0  0  0  0
   -8.0843    5.6937  -10.8539 C   0  0  0  0  0  0  0  0  0  0  0  0
   -7.5259    5.8715  -12.0697 N   0  0  0  0  0  0  0  0  0  0  0  0
   -5.3108    4.9719  -14.1105 N   0  0  0  0  0  0  0  0  0  0  0  0
  1  2  1  0
  2  3  1  0
  3  4  1  0
  4  5  1  0
  5  6  2  0
  6  7  1  0
  7  8  1  0
  8  9  1  0
  9 10  2  0
 10 11  1  0
 11 12  2  0
 12 13  1  0
 13 14  2  0
  8 15  2  0
 15  5  1  0
 14  9  1  0
M  END
>  <inchikey>  (291) 
GGPGETQTEAFVQC-UHFFFAOYSA-N

>  <alias>  (291) 
NCCCc1coc(-c2ccccn2)n1

>  <tags>  (291) 
{'openbind_xx01zvns2b_c1_knitwork_pure', 'fragmenstein_placed'}

>  <HIPPO Pose ID>  (291) 
45153

>  <ref_pdb>  (291) 
41

>  <smiles>  (291) 
C116244-P23

>  <fragmenstein_runtime>  (291) 
1.895684

>  <fragmenstein_outcome>  (291) 
acceptable

>  <fragmenstein_mode>  (291) 
expansion

>  <fragmenstein_error>  (291) 


>  <HIPPO Compound ID>  (291) 
8017

>  <Energy>  (291) 
61.524593

>  <scratch_subdir>  (291) 
/opt/xchem-fragalysis-2/maxwin/BulkDock/SCRATCH/511031/C116244-P23

$$$$
O=S(=O)(c1cnc2ccccc2c1)N1CC[C@@H](c2ncc[nH]2)C1
     RDKit          3D

 23 26  0  0  0  0  0  0  0  0999 V2000
   -3.7169    4.1655  -12.4625 O   0  0  0  0  0  0  0  0  0  0  0  0
   -3.5483    5.3676  -13.2463 S   0  0  0  0  0  0  0  0  0  0  0  0
   -2.2489    5.7247  -13.7819 O   0  0  0  0  0  0  0  0  0  0  0  0
   -4.6485    5.2833  -14.6197 C   0  0  0  0  0  0  0  0  0  0  0  0
   -4.1873    5.7094  -15.8507 C   0  0  0  0  0  0  0  0  0  0  0  0
   -4.9245    5.6815  -16.9848 N   0  0  0  0  0  0  0  0  0  0  0  0
   -6.1692    5.1779  -16.9180 C   0  0  0  0  0  0  0  0  0  0  0  0
   -6.9371    5.1150  -18.0727 C   0  0  0  0  0  0  0  0  0  0  0  0
   -8.2501    4.6432  -18.0556 C   0  0  0  0  0  0  0  0  0  0  0  0
   -8.8132    4.2240  -16.8596 C   0  0  0  0  0  0  0  0  0  0  0  0
   -8.0464    4.2306  -15.6952 C   0  0  0  0  0  0  0  0  0  0  0  0
   -6.7257    4.7125  -15.7052 C   0  0  0  0  0  0  0  0  0  0  0  0
   -5.9257    4.7455  -14.5444 C   0  0  0  0  0  0  0  0  0  0  0  0
   -4.0431    6.6762  -12.3316 N   0  0  0  0  0  0  0  0  0  0  0  0
   -4.3685    7.9745  -12.9217 C   0  0  0  0  0  0  0  0  0  0  0  0
   -5.2637    8.6519  -11.8809 C   0  0  0  0  0  0  0  0  0  0  0  0
   -5.8973    7.5058  -11.0949 C   0  0  1  0  0  0  0  0  0  0  0  0
   -7.0881    6.8430  -11.7055 C   0  0  0  0  0  0  0  0  0  0  0  0
   -7.5836    5.7046  -11.2683 N   0  0  0  0  0  0  0  0  0  0  0  0
   -8.5393    5.3346  -12.1665 C   0  0  0  0  0  0  0  0  0  0  0  0
   -8.6877    6.3037  -13.1288 C   0  0  0  0  0  0  0  0  0  0  0  0
   -7.7638    7.2625  -12.8210 N   0  0  0  0  0  0  0  0  0  0  0  0
   -4.7547    6.4858  -11.0513 C   0  0  0  0  0  0  0  0  0  0  0  0
  1  2  2  0
  2  3  2  0
  2  4  1  0
  4  5  2  0
  5  6  1  0
  6  7  2  0
  7  8  1  0
  8  9  2  0
  9 10  1  0
 10 11  2  0
 11 12  1  0
 12 13  2  0
  2 14  1  0
 14 15  1  0
 15 16  1  0
 16 17  1  0
 17 18  1  6
 18 19  2  0
 19 20  1  0
 20 21  2  0
 21 22  1  0
 17 23  1  0
 13  4  1  0
 23 14  1  0
 12  7  1  0
 22 18  1  0
M  END
>  <inchikey>  (292) 
NPRYIKPNIVOYHP-UHFFFAOYSA-N

>  <alias>  (292) 
O=S(=O)(c1cnc2ccccc2c1)N1CC[C@@H](c2ncc[nH]2)C1

>  <tags>  (292) 
{'openbind_xx01zvns2b_c1_knitwork_pure', 'fragmenstein_placed'}

>  <HIPPO Pose ID>  (292) 
45171

>  <ref_pdb>  (292) 
41

>  <smiles>  (292) 
C13869-P94

>  <fragmenstein_runtime>  (292) 
3.933799

>  <fragmenstein_outcome>  (292) 
acceptable

>  <fragmenstein_mode>  (292) 
expansion

>  <fragmenstein_error>  (292) 


>  <HIPPO Compound ID>  (292) 
13322

>  <Energy>  (292) 
-6.895465

>  <scratch_subdir>  (292) 
/opt/xchem-fragalysis-2/maxwin/BulkDock/SCRATCH/511031/C13869-P94

$$$$
C[C@@H](NC(=O)CN1CCc2sccc2C1)c1ccncc1F
     RDKit          3D

 22 24  0  0  0  0  0  0  0  0999 V2000
   -6.3674    6.3504  -13.9381 C   0  0  0  0  0  0  0  0  0  0  0  0
   -6.2692    4.9032  -14.3891 C   0  0  1  0  0  0  0  0  0  0  0  0
   -6.7890    3.9957  -13.3980 N   0  0  0  0  0  0  0  0  0  0  0  0
   -8.0650    4.0851  -12.5219 C   0  0  0  0  0  0  0  0  0  0  0  0
   -8.9301    4.8693  -12.5236 O   0  0  0  0  0  0  0  0  0  0  0  0
   -8.0571    2.8632  -11.5694 C   0  0  0  0  0  0  0  0  0  0  0  0
   -7.4821    3.0899  -10.2376 N   0  0  0  0  0  0  0  0  0  0  0  0
   -8.3386    3.8315   -9.3039 C   0  0  0  0  0  0  0  0  0  0  0  0
   -8.3470    5.3617   -9.4799 C   0  0  0  0  0  0  0  0  0  0  0  0
   -6.9969    5.8358   -9.8921 C   0  0  0  0  0  0  0  0  0  0  0  0
   -6.6275    7.4802  -10.0702 S   0  0  0  0  0  0  0  0  0  0  0  0
   -4.9882    7.1145  -10.4162 C   0  0  0  0  0  0  0  0  0  0  0  0
   -4.7613    5.7545  -10.4772 C   0  0  0  0  0  0  0  0  0  0  0  0
   -5.9434    4.9994  -10.2041 C   0  0  0  0  0  0  0  0  0  0  0  0
   -6.0769    3.5027  -10.1899 C   0  0  0  0  0  0  0  0  0  0  0  0
   -6.8959    4.7280  -15.7483 C   0  0  0  0  0  0  0  0  0  0  0  0
   -8.2130    4.3104  -15.9556 C   0  0  0  0  0  0  0  0  0  0  0  0
   -8.6678    4.1253  -17.2525 C   0  0  0  0  0  0  0  0  0  0  0  0
   -7.9117    4.3449  -18.3458 N   0  0  0  0  0  0  0  0  0  0  0  0
   -6.6618    4.8083  -18.1355 C   0  0  0  0  0  0  0  0  0  0  0  0
   -6.1330    5.0233  -16.8758 C   0  0  0  0  0  0  0  0  0  0  0  0
   -4.9068    5.5476  -16.7339 F   0  0  0  0  0  0  0  0  0  0  0  0
  2  1  1  1
  2  3  1  0
  3  4  1  0
  4  5  2  0
  4  6  1  0
  6  7  1  0
  7  8  1  0
  8  9  1  0
  9 10  1  0
 10 11  1  0
 11 12  1  0
 12 13  2  0
 13 14  1  0
 14 15  1  0
  2 16  1  0
 16 17  2  0
 17 18  1  0
 18 19  2  0
 19 20  1  0
 20 21  2  0
 21 22  1  0
 15  7  1  0
 21 16  1  0
 14 10  2  0
M  END
>  <inchikey>  (293) 
RSWGQICJEZWFAK-UHFFFAOYSA-N

>  <alias>  (293) 
C[C@@H](NC(=O)CN1CCc2sccc2C1)c1ccncc1F

>  <tags>  (293) 
{'openbind_xx01zvns2b_c1_knitwork_pure', 'fragmenstein_placed'}

>  <HIPPO Pose ID>  (293) 
45455

>  <ref_pdb>  (293) 
41

>  <smiles>  (293) 
C15613-P71

>  <fragmenstein_runtime>  (293) 
3.211192

>  <fragmenstein_outcome>  (293) 
acceptable

>  <fragmenstein_mode>  (293) 
expansion

>  <fragmenstein_error>  (293) 


>  <HIPPO Compound ID>  (293) 
50342

>  <Energy>  (293) 
85.20607

>  <scratch_subdir>  (293) 
/opt/xchem-fragalysis-2/maxwin/BulkDock/SCRATCH/511031/C15613-P71

$$$$
C[C@@H](CN)c1nccs1
     RDKit          3D

  9  9  0  0  0  0  0  0  0  0999 V2000
   -6.5416    5.2622  -16.4467 C   0  0  0  0  0  0  0  0  0  0  0  0
   -6.5404    4.4747  -17.7565 C   0  0  1  0  0  0  0  0  0  0  0  0
   -7.8871    4.5296  -18.5046 C   0  0  0  0  0  0  0  0  0  0  0  0
   -9.0346    3.9904  -17.7602 N   0  0  0  0  0  0  0  0  0  0  0  0
   -5.3803    4.8486  -18.6776 C   0  0  0  0  0  0  0  0  0  0  0  0
   -5.4226    4.7889  -19.9972 N   0  0  0  0  0  0  0  0  0  0  0  0
   -4.1952    5.1088  -20.5408 C   0  0  0  0  0  0  0  0  0  0  0  0
   -3.1983    5.3822  -19.6347 C   0  0  0  0  0  0  0  0  0  0  0  0
   -3.8264    5.2904  -18.0479 S   0  0  0  0  0  0  0  0  0  0  0  0
  2  1  1  1
  2  3  1  0
  3  4  1  0
  2  5  1  0
  5  6  2  0
  6  7  1  0
  7  8  2  0
  8  9  1  0
  9  5  1  0
M  END
>  <inchikey>  (294) 
DBELKQFPGSIUTG-UHFFFAOYSA-N

>  <alias>  (294) 
C[C@@H](CN)c1nccs1

>  <tags>  (294) 
{'openbind_xx01zvns2b_c1_knitwork_pure', 'fragmenstein_placed'}

>  <HIPPO Pose ID>  (294) 
45479

>  <ref_pdb>  (294) 
41

>  <smiles>  (294) 
C12582-P71

>  <fragmenstein_runtime>  (294) 
0.691622

>  <fragmenstein_outcome>  (294) 
acceptable

>  <fragmenstein_mode>  (294) 
expansion

>  <fragmenstein_error>  (294) 


>  <HIPPO Compound ID>  (294) 
1219

>  <Energy>  (294) 
22.51069

>  <scratch_subdir>  (294) 
/opt/xchem-fragalysis-2/maxwin/BulkDock/SCRATCH/511031/C12582-P71

$$$$
CC(C)N(C)c1nc([C@H](C)CN)cs1
     RDKit          3D

 14 14  0  0  0  0  0  0  0  0999 V2000
   -2.7911    5.0235  -22.8014 C   0  0  0  0  0  0  0  0  0  0  0  0
   -3.9969    5.6474  -22.0978 C   0  0  2  0  0  0  0  0  0  0  0  0
   -4.0710    7.1570  -22.4149 C   0  0  0  0  0  0  0  0  0  0  0  0
   -5.2850    7.7959  -21.8906 N   0  0  0  0  0  0  0  0  0  0  0  0
   -3.9919    5.3873  -20.6150 C   0  0  0  0  0  0  0  0  0  0  0  0
   -2.9139    5.4053  -19.7595 C   0  0  0  0  0  0  0  0  0  0  0  0
   -3.4369    5.1294  -18.1660 S   0  0  0  0  0  0  0  0  0  0  0  0
   -5.0832    4.9592  -18.6909 C   0  0  0  0  0  0  0  0  0  0  0  0
   -6.1166    4.5635  -17.8662 N   0  0  0  0  0  0  0  0  0  0  0  0
   -7.2948    4.0725  -18.6160 C   0  0  0  0  0  0  0  0  0  0  0  0
   -6.4746    5.3695  -16.6709 C   0  0  0  0  0  0  0  0  0  0  0  0
   -7.5756    4.7136  -15.8196 C   0  0  0  0  0  0  0  0  0  0  0  0
   -5.3286    5.7267  -15.7245 C   0  0  0  0  0  0  0  0  0  0  0  0
   -5.2058    5.1315  -19.9949 N   0  0  0  0  0  0  0  0  0  0  0  0
  2  1  1  1
  2  3  1  0
  3  4  1  0
  2  5  1  0
  5  6  2  0
  6  7  1  0
  7  8  1  0
  8  9  1  0
  9 10  1  0
  9 11  1  0
 11 12  1  0
 11 13  1  0
  8 14  2  0
 14  5  1  0
M  END
>  <inchikey>  (295) 
PVTBTFNUMGXPKS-UHFFFAOYSA-N

>  <alias>  (295) 
CC(C)N(C)c1nc([C@H](C)CN)cs1

>  <tags>  (295) 
{'openbind_xx01zvns2b_c1_knitwork_pure', 'fragmenstein_placed'}

>  <HIPPO Pose ID>  (295) 
45489

>  <ref_pdb>  (295) 
41

>  <smiles>  (295) 
C12612-P71

>  <fragmenstein_runtime>  (295) 
1.144042

>  <fragmenstein_outcome>  (295) 
acceptable

>  <fragmenstein_mode>  (295) 
expansion

>  <fragmenstein_error>  (295) 


>  <HIPPO Compound ID>  (295) 
12612

>  <Energy>  (295) 
11.322428

>  <scratch_subdir>  (295) 
/opt/xchem-fragalysis-2/maxwin/BulkDock/SCRATCH/511031/C12612-P71

$$$$
C[C@H](CN)c1csc(-c2ccccc2C(F)(F)F)n1
     RDKit          3D

 19 20  0  0  0  0  0  0  0  0999 V2000
   -4.6509    7.8889  -22.0129 C   0  0  0  0  0  0  0  0  0  0  0  0
   -3.6986    6.7087  -21.8070 C   0  0  2  0  0  0  0  0  0  0  0  0
   -3.8987    5.6662  -22.9198 C   0  0  0  0  0  0  0  0  0  0  0  0
   -2.9398    4.5525  -22.8792 N   0  0  0  0  0  0  0  0  0  0  0  0
   -3.8678    6.0844  -20.4515 C   0  0  0  0  0  0  0  0  0  0  0  0
   -2.8392    5.6582  -19.6384 C   0  0  0  0  0  0  0  0  0  0  0  0
   -3.4749    5.0018  -18.2104 S   0  0  0  0  0  0  0  0  0  0  0  0
   -5.0789    5.3245  -18.7423 C   0  0  0  0  0  0  0  0  0  0  0  0
   -6.2579    4.9455  -17.9373 C   0  0  0  0  0  0  0  0  0  0  0  0
   -7.2982    4.2662  -18.5959 C   0  0  0  0  0  0  0  0  0  0  0  0
   -8.4579    3.8786  -17.9261 C   0  0  0  0  0  0  0  0  0  0  0  0
   -8.5964    4.1500  -16.5741 C   0  0  0  0  0  0  0  0  0  0  0  0
   -7.5851    4.8181  -15.8945 C   0  0  0  0  0  0  0  0  0  0  0  0
   -6.4262    5.2535  -16.5694 C   0  0  0  0  0  0  0  0  0  0  0  0
   -5.4282    6.0743  -15.8031 C   0  0  0  0  0  0  0  0  0  0  0  0
   -5.0506    7.2116  -16.4538 F   0  0  0  0  0  0  0  0  0  0  0  0
   -4.2912    5.3894  -15.5279 F   0  0  0  0  0  0  0  0  0  0  0  0
   -5.8953    6.5076  -14.5942 F   0  0  0  0  0  0  0  0  0  0  0  0
   -5.1398    5.8611  -19.9454 N   0  0  0  0  0  0  0  0  0  0  0  0
  2  1  1  6
  2  3  1  0
  3  4  1  0
  2  5  1  0
  5  6  2  0
  6  7  1  0
  7  8  1  0
  8  9  1  0
  9 10  2  0
 10 11  1  0
 11 12  2  0
 12 13  1  0
 13 14  2  0
 14 15  1  0
 15 16  1  0
 15 17  1  0
 15 18  1  0
  8 19  2  0
 19  5  1  0
 14  9  1  0
M  END
>  <inchikey>  (296) 
BJCDLGRYNKEBMX-UHFFFAOYSA-N

>  <alias>  (296) 
C[C@H](CN)c1csc(-c2ccccc2C(F)(F)F)n1

>  <tags>  (296) 
{'openbind_xx01zvns2b_c1_knitwork_pure', 'fragmenstein_placed'}

>  <HIPPO Pose ID>  (296) 
45490

>  <ref_pdb>  (296) 
41

>  <smiles>  (296) 
C12627-P71

>  <fragmenstein_runtime>  (296) 
1.485284

>  <fragmenstein_outcome>  (296) 
acceptable

>  <fragmenstein_mode>  (296) 
expansion

>  <fragmenstein_error>  (296) 


>  <HIPPO Compound ID>  (296) 
4569

>  <Energy>  (296) 
63.318548

>  <scratch_subdir>  (296) 
/opt/xchem-fragalysis-2/maxwin/BulkDock/SCRATCH/511031/C12627-P71

$$$$
C[C@@H](CN)c1csc(-c2ccccc2C(F)(F)F)n1
     RDKit          3D

 19 20  0  0  0  0  0  0  0  0999 V2000
   -2.9028    7.2318  -22.3483 C   0  0  0  0  0  0  0  0  0  0  0  0
   -3.6047    7.6648  -21.0578 C   0  0  1  0  0  0  0  0  0  0  0  0
   -4.8408    8.5430  -21.3621 C   0  0  0  0  0  0  0  0  0  0  0  0
   -5.9179    7.8979  -22.1141 N   0  0  0  0  0  0  0  0  0  0  0  0
   -3.8765    6.5104  -20.1161 C   0  0  0  0  0  0  0  0  0  0  0  0
   -2.9270    5.6495  -19.5984 C   0  0  0  0  0  0  0  0  0  0  0  0
   -3.6304    4.6346  -18.4222 S   0  0  0  0  0  0  0  0  0  0  0  0
   -5.1574    5.3870  -18.6711 C   0  0  0  0  0  0  0  0  0  0  0  0
   -6.3419    5.0215  -17.8735 C   0  0  0  0  0  0  0  0  0  0  0  0
   -7.5004    4.6280  -18.5611 C   0  0  0  0  0  0  0  0  0  0  0  0
   -8.6821    4.3178  -17.8845 C   0  0  0  0  0  0  0  0  0  0  0  0
   -8.7206    4.3735  -16.4982 C   0  0  0  0  0  0  0  0  0  0  0  0
   -7.5877    4.7642  -15.7918 C   0  0  0  0  0  0  0  0  0  0  0  0
   -6.4014    5.1212  -16.4667 C   0  0  0  0  0  0  0  0  0  0  0  0
   -5.2425    5.6124  -15.6472 C   0  0  0  0  0  0  0  0  0  0  0  0
   -5.6284    6.2141  -14.4831 F   0  0  0  0  0  0  0  0  0  0  0  0
   -4.4765    6.5365  -16.2829 F   0  0  0  0  0  0  0  0  0  0  0  0
   -4.3972    4.6103  -15.2743 F   0  0  0  0  0  0  0  0  0  0  0  0
   -5.1529    6.3177  -19.6034 N   0  0  0  0  0  0  0  0  0  0  0  0
  2  1  1  6
  2  3  1  0
  3  4  1  0
  2  5  1  0
  5  6  2  0
  6  7  1  0
  7  8  1  0
  8  9  1  0
  9 10  2  0
 10 11  1  0
 11 12  2  0
 12 13  1  0
 13 14  2  0
 14 15  1  0
 15 16  1  0
 15 17  1  0
 15 18  1  0
  8 19  2  0
 19  5  1  0
 14  9  1  0
M  END
>  <inchikey>  (297) 
PHOZNRUQEMPBLK-UHFFFAOYSA-N

>  <alias>  (297) 
C[C@@H](CN)c1csc(-c2ccccc2C(F)(F)F)n1

>  <tags>  (297) 
{'openbind_xx01zvns2b_c1_knitwork_pure', 'fragmenstein_placed'}

>  <HIPPO Pose ID>  (297) 
45491

>  <ref_pdb>  (297) 
41

>  <smiles>  (297) 
C12627-P23

>  <fragmenstein_runtime>  (297) 
1.946823

>  <fragmenstein_outcome>  (297) 
acceptable

>  <fragmenstein_mode>  (297) 
expansion

>  <fragmenstein_error>  (297) 


>  <HIPPO Compound ID>  (297) 
15701

>  <Energy>  (297) 
64.312856

>  <scratch_subdir>  (297) 
/opt/xchem-fragalysis-2/maxwin/BulkDock/SCRATCH/511031/C12627-P23

$$$$
C[C@@H](CN)c1cnc(-c2ccccc2C(F)(F)F)s1
     RDKit          3D

 19 20  0  0  0  0  0  0  0  0999 V2000
   -1.6368    5.6630  -22.2654 C   0  0  0  0  0  0  0  0  0  0  0  0
   -1.9316    6.0672  -20.8134 C   0  0  1  0  0  0  0  0  0  0  0  0
   -1.8288    7.6089  -20.6972 C   0  0  0  0  0  0  0  0  0  0  0  0
   -1.8903    8.1233  -19.3260 N   0  0  0  0  0  0  0  0  0  0  0  0
   -3.2865    5.5641  -20.3728 C   0  0  0  0  0  0  0  0  0  0  0  0
   -4.4196    5.3093  -21.1115 C   0  0  0  0  0  0  0  0  0  0  0  0
   -5.5240    4.9224  -20.3920 N   0  0  0  0  0  0  0  0  0  0  0  0
   -5.2932    4.9756  -19.0911 C   0  0  0  0  0  0  0  0  0  0  0  0
   -6.3616    4.7528  -18.0776 C   0  0  0  0  0  0  0  0  0  0  0  0
   -7.5261    4.1055  -18.5506 C   0  0  0  0  0  0  0  0  0  0  0  0
   -8.6241    3.8458  -17.7336 C   0  0  0  0  0  0  0  0  0  0  0  0
   -8.5841    4.2092  -16.4008 C   0  0  0  0  0  0  0  0  0  0  0  0
   -7.4606    4.8493  -15.8955 C   0  0  0  0  0  0  0  0  0  0  0  0
   -6.3583    5.1649  -16.7243 C   0  0  0  0  0  0  0  0  0  0  0  0
   -5.2615    5.9827  -16.1022 C   0  0  0  0  0  0  0  0  0  0  0  0
   -4.1079    5.2872  -15.9488 F   0  0  0  0  0  0  0  0  0  0  0  0
   -5.5680    6.4506  -14.8548 F   0  0  0  0  0  0  0  0  0  0  0  0
   -4.9580    7.1027  -16.8194 F   0  0  0  0  0  0  0  0  0  0  0  0
   -3.6246    5.2132  -18.7312 S   0  0  0  0  0  0  0  0  0  0  0  0
  2  1  1  6
  2  3  1  0
  3  4  1  0
  2  5  1  0
  5  6  2  0
  6  7  1  0
  7  8  2  0
  8  9  1  0
  9 10  2  0
 10 11  1  0
 11 12  2  0
 12 13  1  0
 13 14  2  0
 14 15  1  0
 15 16  1  0
 15 17  1  0
 15 18  1  0
  8 19  1  0
 19  5  1  0
 14  9  1  0
M  END
>  <inchikey>  (298) 
DNCIEGFAQLNDRM-UHFFFAOYSA-N

>  <alias>  (298) 
C[C@@H](CN)c1cnc(-c2ccccc2C(F)(F)F)s1

>  <tags>  (298) 
{'openbind_xx01zvns2b_c1_knitwork_pure', 'fragmenstein_placed'}

>  <HIPPO Pose ID>  (298) 
45492

>  <ref_pdb>  (298) 
41

>  <smiles>  (298) 
C12628-P71

>  <fragmenstein_runtime>  (298) 
1.40032

>  <fragmenstein_outcome>  (298) 
acceptable

>  <fragmenstein_mode>  (298) 
expansion

>  <fragmenstein_error>  (298) 


>  <HIPPO Compound ID>  (298) 
48454

>  <Energy>  (298) 
64.566829

>  <scratch_subdir>  (298) 
/opt/xchem-fragalysis-2/maxwin/BulkDock/SCRATCH/511031/C12628-P71

$$$$
c1ccc(-c2nccs2)nc1
     RDKit          3D

 11 12  0  0  0  0  0  0  0  0999 V2000
   -8.5513    4.2644  -16.4681 C   0  0  0  0  0  0  0  0  0  0  0  0
   -7.4101    4.7051  -15.8158 C   0  0  0  0  0  0  0  0  0  0  0  0
   -6.2589    4.9627  -16.5579 C   0  0  0  0  0  0  0  0  0  0  0  0
   -6.2757    4.7561  -17.9392 C   0  0  0  0  0  0  0  0  0  0  0  0
   -5.1027    4.9599  -18.8260 C   0  0  0  0  0  0  0  0  0  0  0  0
   -5.0988    4.8136  -20.1446 N   0  0  0  0  0  0  0  0  0  0  0  0
   -3.8360    5.0167  -20.6587 C   0  0  0  0  0  0  0  0  0  0  0  0
   -2.8594    5.3062  -19.7364 C   0  0  0  0  0  0  0  0  0  0  0  0
   -3.5514    5.3870  -18.1768 S   0  0  0  0  0  0  0  0  0  0  0  0
   -7.3908    4.3182  -18.5760 N   0  0  0  0  0  0  0  0  0  0  0  0
   -8.4961    4.0889  -17.8374 C   0  0  0  0  0  0  0  0  0  0  0  0
  1  2  2  0
  2  3  1  0
  3  4  2  0
  4  5  1  0
  5  6  2  0
  6  7  1  0
  7  8  2  0
  8  9  1  0
  4 10  1  0
 10 11  2  0
 11  1  1  0
  9  5  1  0
M  END
>  <inchikey>  (299) 
DTRGKYDONNPFAX-UHFFFAOYSA-N

>  <alias>  (299) 
c1ccc(-c2nccs2)nc1

>  <tags>  (299) 
{'openbind_xx01zvns2b_c1_knitwork_pure', 'fragmenstein_placed'}

>  <HIPPO Pose ID>  (299) 
45610

>  <ref_pdb>  (299) 
41

>  <smiles>  (299) 
C1138-P71

>  <fragmenstein_runtime>  (299) 
0.628983

>  <fragmenstein_outcome>  (299) 
acceptable

>  <fragmenstein_mode>  (299) 
expansion

>  <fragmenstein_error>  (299) 


>  <HIPPO Compound ID>  (299) 
56508

>  <Energy>  (299) 
54.932359

>  <scratch_subdir>  (299) 
/opt/xchem-fragalysis-2/maxwin/BulkDock/SCRATCH/511031/C1138-P71

$$$$
C[C@@H](CNC(=O)c1ccnn1C1CCCC1)N(C)Cc1cscn1
     RDKit          3D

 24 26  0  0  0  0  0  0  0  0999 V2000
   -6.3029    2.7583  -11.6689 C   0  0  0  0  0  0  0  0  0  0  0  0
   -7.1747    4.0176  -11.5117 C   0  0  1  0  0  0  0  0  0  0  0  0
   -8.5225    3.8161  -12.2321 C   0  0  0  0  0  0  0  0  0  0  0  0
   -8.4037    3.9035  -13.6685 N   0  0  0  0  0  0  0  0  0  0  0  0
   -8.1233    5.1062  -14.5716 C   0  0  0  0  0  0  0  0  0  0  0  0
   -7.8667    6.2069  -14.3021 O   0  0  0  0  0  0  0  0  0  0  0  0
   -8.1048    4.7005  -15.9580 C   0  0  0  0  0  0  0  0  0  0  0  0
   -9.0595    4.0933  -16.7469 C   0  0  0  0  0  0  0  0  0  0  0  0
   -8.5183    4.0889  -18.0437 C   0  0  0  0  0  0  0  0  0  0  0  0
   -7.2873    4.6037  -18.0781 N   0  0  0  0  0  0  0  0  0  0  0  0
   -7.0543    4.9700  -16.8047 N   0  0  0  0  0  0  0  0  0  0  0  0
   -5.8231    5.6304  -16.4306 C   0  0  0  0  0  0  0  0  0  0  0  0
   -4.8515    5.9918  -17.5532 C   0  0  0  0  0  0  0  0  0  0  0  0
   -3.5110    6.2104  -16.8485 C   0  0  0  0  0  0  0  0  0  0  0  0
   -3.6588    5.6082  -15.4504 C   0  0  0  0  0  0  0  0  0  0  0  0
   -4.9443    4.8040  -15.4942 C   0  0  0  0  0  0  0  0  0  0  0  0
   -7.2379    4.4793  -10.0981 N   0  0  0  0  0  0  0  0  0  0  0  0
   -7.7942    3.4687   -9.1912 C   0  0  0  0  0  0  0  0  0  0  0  0
   -7.9883    5.7384   -9.9049 C   0  0  0  0  0  0  0  0  0  0  0  0
   -7.5199    6.8671  -10.7718 C   0  0  0  0  0  0  0  0  0  0  0  0
   -6.2189    7.3207  -10.9154 C   0  0  0  0  0  0  0  0  0  0  0  0
   -6.1654    8.6365  -12.0104 S   0  0  0  0  0  0  0  0  0  0  0  0
   -7.8669    8.5294  -12.1844 C   0  0  0  0  0  0  0  0  0  0  0  0
   -8.4676    7.5975  -11.4796 N   0  0  0  0  0  0  0  0  0  0  0  0
  2  1  1  1
  2  3  1  0
  3  4  1  0
  4  5  1  0
  5  6  2  0
  5  7  1  0
  7  8  2  0
  8  9  1  0
  9 10  2  0
 10 11  1  0
 11 12  1  0
 12 13  1  0
 13 14  1  0
 14 15  1  0
 15 16  1  0
  2 17  1  0
 17 18  1  0
 17 19  1  0
 19 20  1  0
 20 21  2  0
 21 22  1  0
 22 23  1  0
 23 24  2  0
 11  7  1  0
 16 12  1  0
 24 20  1  0
M  END
>  <inchikey>  (300) 
ADNZMUDVAPDSLJ-UHFFFAOYSA-N

>  <alias>  (300) 
C[C@@H](CNC(=O)c1ccnn1C1CCCC1)N(C)Cc1cscn1

>  <tags>  (300) 
{'openbind_xx01zvns2b_c1_knitwork_pure', 'fragmenstein_placed'}

>  <HIPPO Pose ID>  (300) 
46011

>  <ref_pdb>  (300) 
41

>  <smiles>  (300) 
C14111-P65

>  <fragmenstein_runtime>  (300) 
4.58073

>  <fragmenstein_outcome>  (300) 
acceptable

>  <fragmenstein_mode>  (300) 
expansion

>  <fragmenstein_error>  (300) 


>  <HIPPO Compound ID>  (300) 
10394

>  <Energy>  (300) 
38.389497

>  <scratch_subdir>  (300) 
/opt/xchem-fragalysis-2/maxwin/BulkDock/SCRATCH/511031/C14111-P65

$$$$
C[C@H](CN(C)Cc1cscn1)NC(=O)c1ccnn1C1CCCC1
     RDKit          3D

 24 26  0  0  0  0  0  0  0  0999 V2000
   -8.6254    6.2844  -12.2011 C   0  0  0  0  0  0  0  0  0  0  0  0
   -8.4436    4.7717  -12.3451 C   0  0  2  0  0  0  0  0  0  0  0  0
   -7.3947    4.1878  -11.3764 C   0  0  0  0  0  0  0  0  0  0  0  0
   -7.7629    4.5099   -9.9789 N   0  0  0  0  0  0  0  0  0  0  0  0
   -7.0361    5.6853   -9.5064 C   0  0  0  0  0  0  0  0  0  0  0  0
   -7.5727    3.3511   -9.0837 C   0  0  0  0  0  0  0  0  0  0  0  0
   -8.4067    3.4371   -7.8260 C   0  0  0  0  0  0  0  0  0  0  0  0
   -8.2247    4.2859   -6.7461 C   0  0  0  0  0  0  0  0  0  0  0  0
   -9.4048    3.9935   -5.5375 S   0  0  0  0  0  0  0  0  0  0  0  0
  -10.0501    2.7375   -6.5054 C   0  0  0  0  0  0  0  0  0  0  0  0
   -9.4304    2.5063   -7.6392 N   0  0  0  0  0  0  0  0  0  0  0  0
   -8.2179    4.4834  -13.7455 N   0  0  0  0  0  0  0  0  0  0  0  0
   -7.4384    5.2622  -14.8085 C   0  0  0  0  0  0  0  0  0  0  0  0
   -6.7877    6.2205  -14.7143 O   0  0  0  0  0  0  0  0  0  0  0  0
   -7.6789    4.7016  -16.1226 C   0  0  0  0  0  0  0  0  0  0  0  0
   -8.8446    4.1951  -16.6733 C   0  0  0  0  0  0  0  0  0  0  0  0
   -8.5711    4.0263  -18.0380 C   0  0  0  0  0  0  0  0  0  0  0  0
   -7.3058    4.3205  -18.3319 N   0  0  0  0  0  0  0  0  0  0  0  0
   -6.7654    4.6850  -17.1507 N   0  0  0  0  0  0  0  0  0  0  0  0
   -5.3455    4.9780  -17.1259 C   0  0  0  0  0  0  0  0  0  0  0  0
   -5.0074    6.4675  -17.2375 C   0  0  0  0  0  0  0  0  0  0  0  0
   -3.6595    6.5914  -16.5435 C   0  0  0  0  0  0  0  0  0  0  0  0
   -3.7762    5.6367  -15.3659 C   0  0  0  0  0  0  0  0  0  0  0  0
   -4.5513    4.4461  -15.9181 C   0  0  0  0  0  0  0  0  0  0  0  0
  2  1  1  6
  2  3  1  0
  3  4  1  0
  4  5  1  0
  4  6  1  0
  6  7  1  0
  7  8  2  0
  8  9  1  0
  9 10  1  0
 10 11  2  0
  2 12  1  0
 12 13  1  0
 13 14  2  0
 13 15  1  0
 15 16  2  0
 16 17  1  0
 17 18  2  0
 18 19  1  0
 19 20  1  0
 20 21  1  0
 21 22  1  0
 22 23  1  0
 23 24  1  0
 11  7  1  0
 19 15  1  0
 24 20  1  0
M  END
>  <inchikey>  (301) 
BWONVHFKFXBDCX-UHFFFAOYSA-N

>  <alias>  (301) 
C[C@H](CN(C)Cc1cscn1)NC(=O)c1ccnn1C1CCCC1

>  <tags>  (301) 
{'openbind_xx01zvns2b_c1_knitwork_pure', 'fragmenstein_placed'}

>  <HIPPO Pose ID>  (301) 
46020

>  <ref_pdb>  (301) 
41

>  <smiles>  (301) 
C14125-P65

>  <fragmenstein_runtime>  (301) 
5.486399

>  <fragmenstein_outcome>  (301) 
acceptable

>  <fragmenstein_mode>  (301) 
expansion

>  <fragmenstein_error>  (301) 


>  <HIPPO Compound ID>  (301) 
775

>  <Energy>  (301) 
46.931003

>  <scratch_subdir>  (301) 
/opt/xchem-fragalysis-2/maxwin/BulkDock/SCRATCH/511031/C14125-P65

$$$$
C[C@@H](CNCc1cscn1)NC(=O)c1ccnn1C1CCCC1
     RDKit          3D

 23 25  0  0  0  0  0  0  0  0999 V2000
   -7.1812    2.7509  -11.5156 C   0  0  0  0  0  0  0  0  0  0  0  0
   -8.3008    3.6202  -12.0453 C   0  0  1  0  0  0  0  0  0  0  0  0
   -8.5015    4.9719  -11.3166 C   0  0  0  0  0  0  0  0  0  0  0  0
   -7.3763    5.8492  -10.9997 N   0  0  0  0  0  0  0  0  0  0  0  0
   -6.5900    5.4347   -9.8414 C   0  0  0  0  0  0  0  0  0  0  0  0
   -7.3945    5.2905   -8.5855 C   0  0  0  0  0  0  0  0  0  0  0  0
   -7.9376    6.2998   -7.8096 C   0  0  0  0  0  0  0  0  0  0  0  0
   -8.7204    5.6331   -6.4327 S   0  0  0  0  0  0  0  0  0  0  0  0
   -8.3282    4.0622   -6.9953 C   0  0  0  0  0  0  0  0  0  0  0  0
   -7.6235    4.0144   -8.1020 N   0  0  0  0  0  0  0  0  0  0  0  0
   -8.1824    3.7595  -13.4861 N   0  0  0  0  0  0  0  0  0  0  0  0
   -7.4591    4.8167  -14.3289 C   0  0  0  0  0  0  0  0  0  0  0  0
   -6.7780    5.7021  -14.0051 O   0  0  0  0  0  0  0  0  0  0  0  0
   -7.7249    4.5864  -15.7456 C   0  0  0  0  0  0  0  0  0  0  0  0
   -8.8781    4.1479  -16.3792 C   0  0  0  0  0  0  0  0  0  0  0  0
   -8.6133    4.1994  -17.7541 C   0  0  0  0  0  0  0  0  0  0  0  0
   -7.3739    4.6152  -17.9999 N   0  0  0  0  0  0  0  0  0  0  0  0
   -6.8333    4.8051  -16.7755 N   0  0  0  0  0  0  0  0  0  0  0  0
   -5.4306    5.1659  -16.7323 C   0  0  0  0  0  0  0  0  0  0  0  0
   -5.1696    6.6582  -16.5156 C   0  0  0  0  0  0  0  0  0  0  0  0
   -3.7708    6.6957  -15.9218 C   0  0  0  0  0  0  0  0  0  0  0  0
   -3.7625    5.5034  -14.9787 C   0  0  0  0  0  0  0  0  0  0  0  0
   -4.5518    4.4239  -15.7121 C   0  0  0  0  0  0  0  0  0  0  0  0
  2  1  1  1
  2  3  1  0
  3  4  1  0
  4  5  1  0
  5  6  1  0
  6  7  2  0
  7  8  1  0
  8  9  1  0
  9 10  2  0
  2 11  1  0
 11 12  1  0
 12 13  2  0
 12 14  1  0
 14 15  2  0
 15 16  1  0
 16 17  2  0
 17 18  1  0
 18 19  1  0
 19 20  1  0
 20 21  1  0
 21 22  1  0
 22 23  1  0
 10  6  1  0
 18 14  1  0
 23 19  1  0
M  END
>  <inchikey>  (302) 
QUKHFQCPYFFSDA-UHFFFAOYSA-N

>  <alias>  (302) 
C[C@@H](CNCc1cscn1)NC(=O)c1ccnn1C1CCCC1

>  <tags>  (302) 
{'openbind_xx01zvns2b_c1_knitwork_pure', 'fragmenstein_placed'}

>  <HIPPO Pose ID>  (302) 
46028

>  <ref_pdb>  (302) 
41

>  <smiles>  (302) 
C14136-P65

>  <fragmenstein_runtime>  (302) 
5.050624

>  <fragmenstein_outcome>  (302) 
acceptable

>  <fragmenstein_mode>  (302) 
expansion

>  <fragmenstein_error>  (302) 


>  <HIPPO Compound ID>  (302) 
111665

>  <Energy>  (302) 
30.941803

>  <scratch_subdir>  (302) 
/opt/xchem-fragalysis-2/maxwin/BulkDock/SCRATCH/511031/C14136-P65

$$$$
C[C@@H](NCc1cscn1)[C@@H](C)NC(=O)c1ccnn1C1CCCC1
     RDKit          3D

 24 26  0  0  0  0  0  0  0  0999 V2000
   -8.5037    6.3611  -11.8737 C   0  0  0  0  0  0  0  0  0  0  0  0
   -7.2855    5.4662  -11.6622 C   0  0  1  0  0  0  0  0  0  0  0  0
   -6.8996    5.4808  -10.2381 N   0  0  0  0  0  0  0  0  0  0  0  0
   -7.7323    4.6675   -9.3463 C   0  0  0  0  0  0  0  0  0  0  0  0
   -7.8487    5.3454   -8.0111 C   0  0  0  0  0  0  0  0  0  0  0  0
   -8.0485    4.7203   -6.7925 C   0  0  0  0  0  0  0  0  0  0  0  0
   -8.2119    5.8886   -5.5483 S   0  0  0  0  0  0  0  0  0  0  0  0
   -8.0077    7.1310   -6.7119 C   0  0  0  0  0  0  0  0  0  0  0  0
   -7.8132    6.7388   -7.9502 N   0  0  0  0  0  0  0  0  0  0  0  0
   -7.3021    4.0786  -12.3901 C   0  0  1  0  0  0  0  0  0  0  0  0
   -8.1765    2.9887  -11.7920 C   0  0  0  0  0  0  0  0  0  0  0  0
   -7.6081    4.1633  -13.8143 N   0  0  0  0  0  0  0  0  0  0  0  0
   -7.3608    5.2901  -14.8193 C   0  0  0  0  0  0  0  0  0  0  0  0
   -6.9433    6.3632  -14.6607 O   0  0  0  0  0  0  0  0  0  0  0  0
   -7.6711    4.8100  -16.1441 C   0  0  0  0  0  0  0  0  0  0  0  0
   -8.8433    4.2823  -16.6526 C   0  0  0  0  0  0  0  0  0  0  0  0
   -8.6022    4.0995  -18.0224 C   0  0  0  0  0  0  0  0  0  0  0  0
   -7.3483    4.4083  -18.3538 N   0  0  0  0  0  0  0  0  0  0  0  0
   -6.7860    4.8030  -17.1938 N   0  0  0  0  0  0  0  0  0  0  0  0
   -5.3627    5.0857  -17.1888 C   0  0  0  0  0  0  0  0  0  0  0  0
   -5.0183    6.5782  -17.1935 C   0  0  0  0  0  0  0  0  0  0  0  0
   -3.6981    6.6659  -16.4424 C   0  0  0  0  0  0  0  0  0  0  0  0
   -3.8469    5.6251  -15.3451 C   0  0  0  0  0  0  0  0  0  0  0  0
   -4.5537    4.4655  -16.0339 C   0  0  0  0  0  0  0  0  0  0  0  0
  2  1  1  1
  2  3  1  0
  3  4  1  0
  4  5  1  0
  5  6  2  0
  6  7  1  0
  7  8  1  0
  8  9  2  0
  2 10  1  0
 10 11  1  1
 10 12  1  0
 12 13  1  0
 13 14  2  0
 13 15  1  0
 15 16  2  0
 16 17  1  0
 17 18  2  0
 18 19  1  0
 19 20  1  0
 20 21  1  0
 21 22  1  0
 22 23  1  0
 23 24  1  0
  9  5  1  0
 19 15  1  0
 24 20  1  0
M  END
>  <inchikey>  (303) 
ZPPSZPSTUPNZRX-UHFFFAOYSA-N

>  <alias>  (303) 
C[C@@H](NCc1cscn1)[C@@H](C)NC(=O)c1ccnn1C1CCCC1

>  <tags>  (303) 
{'openbind_xx01zvns2b_c1_knitwork_pure', 'fragmenstein_placed'}

>  <HIPPO Pose ID>  (303) 
46031

>  <ref_pdb>  (303) 
41

>  <smiles>  (303) 
C14145-P65

>  <fragmenstein_runtime>  (303) 
5.606811

>  <fragmenstein_outcome>  (303) 
acceptable

>  <fragmenstein_mode>  (303) 
expansion

>  <fragmenstein_error>  (303) 


>  <HIPPO Compound ID>  (303) 
9579

>  <Energy>  (303) 
41.814961

>  <scratch_subdir>  (303) 
/opt/xchem-fragalysis-2/maxwin/BulkDock/SCRATCH/511031/C14145-P65

$$$$
CC(C)NN1CCCCC1
     RDKit          3D

 10 10  0  0  0  0  0  0  0  0999 V2000
   -2.0112    7.0008  -19.2638 C   0  0  0  0  0  0  0  0  0  0  0  0
   -2.5721    5.5971  -19.4935 C   0  0  0  0  0  0  0  0  0  0  0  0
   -1.9340    4.5816  -18.5566 C   0  0  0  0  0  0  0  0  0  0  0  0
   -4.0292    5.5910  -19.5700 N   0  0  0  0  0  0  0  0  0  0  0  0
   -4.7653    5.2706  -18.3670 N   0  0  0  0  0  0  0  0  0  0  0  0
   -4.7286    6.3661  -17.3871 C   0  0  0  0  0  0  0  0  0  0  0  0
   -5.5663    6.0400  -16.1502 C   0  0  0  0  0  0  0  0  0  0  0  0
   -7.0101    5.7640  -16.5309 C   0  0  0  0  0  0  0  0  0  0  0  0
   -7.0796    4.6935  -17.6038 C   0  0  0  0  0  0  0  0  0  0  0  0
   -6.1666    5.0102  -18.7858 C   0  0  0  0  0  0  0  0  0  0  0  0
  1  2  1  0
  2  3  1  0
  2  4  1  0
  4  5  1  0
  5  6  1  0
  6  7  1  0
  7  8  1  0
  8  9  1  0
  9 10  1  0
 10  5  1  0
M  END
>  <inchikey>  (304) 
AWVJEIMCQLFZOJ-UHFFFAOYSA-N

>  <alias>  (304) 
CC(C)NN1CCCCC1

>  <tags>  (304) 
{'openbind_xx01zvns2b_c1_knitwork_pure', 'fragmenstein_placed'}

>  <HIPPO Pose ID>  (304) 
46357

>  <ref_pdb>  (304) 
41

>  <smiles>  (304) 
C117062-P48

>  <fragmenstein_runtime>  (304) 
1.5994

>  <fragmenstein_outcome>  (304) 
acceptable

>  <fragmenstein_mode>  (304) 
expansion

>  <fragmenstein_error>  (304) 


>  <HIPPO Compound ID>  (304) 
15616

>  <Energy>  (304) 
33.612604

>  <scratch_subdir>  (304) 
/opt/xchem-fragalysis-2/maxwin/BulkDock/SCRATCH/511031/C117062-P48

$$$$
Cn1c(CCNC(=O)Cn2ccnc2)nc2ccccc21
     RDKit          3D

 21 23  0  0  0  0  0  0  0  0999 V2000
   -5.5994    7.1481  -26.7203 C   0  0  0  0  0  0  0  0  0  0  0  0
   -6.6610    8.1243  -26.7138 N   0  0  0  0  0  0  0  0  0  0  0  0
   -6.6108    9.4222  -26.2543 C   0  0  0  0  0  0  0  0  0  0  0  0
   -5.3780   10.1201  -25.7774 C   0  0  0  0  0  0  0  0  0  0  0  0
   -5.3919   10.4186  -24.2793 C   0  0  0  0  0  0  0  0  0  0  0  0
   -4.7594    9.3896  -23.4846 N   0  0  0  0  0  0  0  0  0  0  0  0
   -5.2062    7.9331  -23.1804 C   0  0  0  0  0  0  0  0  0  0  0  0
   -6.1887    7.3695  -23.4616 O   0  0  0  0  0  0  0  0  0  0  0  0
   -4.0806    7.2618  -22.4060 C   0  0  0  0  0  0  0  0  0  0  0  0
   -4.2851    7.2827  -20.9732 N   0  0  0  0  0  0  0  0  0  0  0  0
   -4.1731    8.3754  -20.1579 C   0  0  0  0  0  0  0  0  0  0  0  0
   -4.2417    7.8660  -18.8808 C   0  0  0  0  0  0  0  0  0  0  0  0
   -4.3742    6.5018  -18.9040 N   0  0  0  0  0  0  0  0  0  0  0  0
   -4.4203    6.1812  -20.1773 C   0  0  0  0  0  0  0  0  0  0  0  0
   -7.7922   10.0037  -26.3691 N   0  0  0  0  0  0  0  0  0  0  0  0
   -8.6056    9.0811  -26.9784 C   0  0  0  0  0  0  0  0  0  0  0  0
   -9.9550    9.1817  -27.3455 C   0  0  0  0  0  0  0  0  0  0  0  0
  -10.5562    8.1003  -28.0001 C   0  0  0  0  0  0  0  0  0  0  0  0
   -9.8350    6.9371  -28.2667 C   0  0  0  0  0  0  0  0  0  0  0  0
   -8.5030    6.8028  -27.8676 C   0  0  0  0  0  0  0  0  0  0  0  0
   -7.9166    7.9014  -27.2295 C   0  0  0  0  0  0  0  0  0  0  0  0
  1  2  1  0
  2  3  1  0
  3  4  1  0
  4  5  1  0
  5  6  1  0
  6  7  1  0
  7  8  2  0
  7  9  1  0
  9 10  1  0
 10 11  1  0
 11 12  2  0
 12 13  1  0
 13 14  2  0
  3 15  2  0
 15 16  1  0
 16 17  2  0
 17 18  1  0
 18 19  2  0
 19 20  1  0
 20 21  2  0
 21  2  1  0
 14 10  1  0
 21 16  1  0
M  END
>  <inchikey>  (305) 
LYNIETWERFVSNP-UHFFFAOYSA-N

>  <alias>  (305) 
Cn1c(CCNC(=O)Cn2ccnc2)nc2ccccc21

>  <tags>  (305) 
{'openbind_xx01zvns2b_c1_knitwork_pure', 'fragmenstein_placed'}

>  <HIPPO Pose ID>  (305) 
46413

>  <ref_pdb>  (305) 
41

>  <smiles>  (305) 
C17032-P50

>  <fragmenstein_runtime>  (305) 
1.580238

>  <fragmenstein_outcome>  (305) 
acceptable

>  <fragmenstein_mode>  (305) 
expansion

>  <fragmenstein_error>  (305) 


>  <HIPPO Compound ID>  (305) 
3289

>  <Energy>  (305) 
41.987117

>  <scratch_subdir>  (305) 
/opt/xchem-fragalysis-2/maxwin/BulkDock/SCRATCH/511031/C17032-P50

$$$$
C[C@H](CNCc1nc2ccccc2n1C)Cn1ccnc1
     RDKit          3D

 21 23  0  0  0  0  0  0  0  0999 V2000
   -5.9930    7.1513  -24.2807 C   0  0  0  0  0  0  0  0  0  0  0  0
   -5.4922    7.9168  -23.0637 C   0  0  2  0  0  0  0  0  0  0  0  0
   -4.7981    9.2395  -23.4410 C   0  0  0  0  0  0  0  0  0  0  0  0
   -5.6142   10.2106  -24.1969 N   0  0  0  0  0  0  0  0  0  0  0  0
   -5.3979   10.1383  -25.6595 C   0  0  0  0  0  0  0  0  0  0  0  0
   -6.5619    9.5547  -26.3971 C   0  0  0  0  0  0  0  0  0  0  0  0
   -6.5450    8.4051  -27.0460 N   0  0  0  0  0  0  0  0  0  0  0  0
   -7.8382    8.1686  -27.4311 C   0  0  0  0  0  0  0  0  0  0  0  0
   -8.3862    7.0463  -28.0672 C   0  0  0  0  0  0  0  0  0  0  0  0
   -9.7555    7.0345  -28.3483 C   0  0  0  0  0  0  0  0  0  0  0  0
  -10.5639    8.1129  -27.9902 C   0  0  0  0  0  0  0  0  0  0  0  0
  -10.0347    9.2394  -27.3489 C   0  0  0  0  0  0  0  0  0  0  0  0
   -8.6597    9.2388  -27.0888 C   0  0  0  0  0  0  0  0  0  0  0  0
   -7.8037   10.1438  -26.5028 N   0  0  0  0  0  0  0  0  0  0  0  0
   -8.1455   11.4893  -26.1128 C   0  0  0  0  0  0  0  0  0  0  0  0
   -4.5662    6.9736  -22.2742 C   0  0  0  0  0  0  0  0  0  0  0  0
   -4.3602    7.3053  -20.8796 N   0  0  0  0  0  0  0  0  0  0  0  0
   -3.4969    8.2383  -20.3794 C   0  0  0  0  0  0  0  0  0  0  0  0
   -3.5209    8.0463  -19.0169 C   0  0  0  0  0  0  0  0  0  0  0  0
   -4.3591    7.0145  -18.6827 N   0  0  0  0  0  0  0  0  0  0  0  0
   -4.8511    6.5888  -19.8237 C   0  0  0  0  0  0  0  0  0  0  0  0
  2  1  1  6
  2  3  1  0
  3  4  1  0
  4  5  1  0
  5  6  1  0
  6  7  2  0
  7  8  1  0
  8  9  2  0
  9 10  1  0
 10 11  2  0
 11 12  1  0
 12 13  2  0
 13 14  1  0
 14 15  1  0
  2 16  1  0
 16 17  1  0
 17 18  1  0
 18 19  2  0
 19 20  1  0
 20 21  2  0
 14  6  1  0
 21 17  1  0
 13  8  1  0
M  END
>  <inchikey>  (306) 
DKTZOUDIUIYEKC-UHFFFAOYSA-N

>  <alias>  (306) 
C[C@H](CNCc1nc2ccccc2n1C)Cn1ccnc1

>  <tags>  (306) 
{'openbind_xx01zvns2b_c1_knitwork_pure', 'fragmenstein_placed'}

>  <HIPPO Pose ID>  (306) 
46436

>  <ref_pdb>  (306) 
41

>  <smiles>  (306) 
C17067-P50

>  <fragmenstein_runtime>  (306) 
1.333282

>  <fragmenstein_outcome>  (306) 
acceptable

>  <fragmenstein_mode>  (306) 
expansion

>  <fragmenstein_error>  (306) 


>  <HIPPO Compound ID>  (306) 
10474

>  <Energy>  (306) 
34.204785

>  <scratch_subdir>  (306) 
/opt/xchem-fragalysis-2/maxwin/BulkDock/SCRATCH/511031/C17067-P50

$$$$
c1cc(S[C@H]2CCCNC2)ncn1
     RDKit          3D

 13 14  0  0  0  0  0  0  0  0999 V2000
   -8.5007    4.5585  -17.6688 C   0  0  0  0  0  0  0  0  0  0  0  0
   -8.5528    4.2076  -16.3457 C   0  0  0  0  0  0  0  0  0  0  0  0
   -7.3869    4.3948  -15.6375 C   0  0  0  0  0  0  0  0  0  0  0  0
   -7.3170    3.9413  -13.9314 S   0  0  0  0  0  0  0  0  0  0  0  0
   -7.8542    5.5442  -13.2262 C   0  0  1  0  0  0  0  0  0  0  0  0
   -8.3217    5.3197  -11.7873 C   0  0  0  0  0  0  0  0  0  0  0  0
   -7.2485    5.6239  -10.7428 C   0  0  0  0  0  0  0  0  0  0  0  0
   -5.8312    5.4468  -11.2738 C   0  0  0  0  0  0  0  0  0  0  0  0
   -5.5353    6.2417  -12.4741 N   0  0  0  0  0  0  0  0  0  0  0  0
   -6.7311    6.5937  -13.2524 C   0  0  0  0  0  0  0  0  0  0  0  0
   -6.2641    4.9178  -16.1621 N   0  0  0  0  0  0  0  0  0  0  0  0
   -6.3281    5.2109  -17.4623 C   0  0  0  0  0  0  0  0  0  0  0  0
   -7.4012    5.0714  -18.2470 N   0  0  0  0  0  0  0  0  0  0  0  0
  1  2  2  0
  2  3  1  0
  3  4  1  0
  5  4  1  1
  5  6  1  0
  6  7  1  0
  7  8  1  0
  8  9  1  0
  9 10  1  0
  3 11  2  0
 11 12  1  0
 12 13  2  0
 13  1  1  0
 10  5  1  0
M  END
>  <inchikey>  (307) 
AQTXNVBJVPRHNV-UHFFFAOYSA-N

>  <alias>  (307) 
c1cc(S[C@H]2CCCNC2)ncn1

>  <tags>  (307) 
{'openbind_xx01zvns2b_c1_knitwork_pure', 'fragmenstein_placed'}

>  <HIPPO Pose ID>  (307) 
46641

>  <ref_pdb>  (307) 
41

>  <smiles>  (307) 
C4574-P57

>  <fragmenstein_runtime>  (307) 
0.80977

>  <fragmenstein_outcome>  (307) 
acceptable

>  <fragmenstein_mode>  (307) 
expansion

>  <fragmenstein_error>  (307) 


>  <HIPPO Compound ID>  (307) 
9118

>  <Energy>  (307) 
-6.351084

>  <scratch_subdir>  (307) 
/opt/xchem-fragalysis-2/maxwin/BulkDock/SCRATCH/511031/C4574-P57

$$$$
Nc1cncnc1S[C@H]1CCCNC1
     RDKit          3D

 14 15  0  0  0  0  0  0  0  0999 V2000
   -8.3754    5.2041  -15.5280 N   0  0  0  0  0  0  0  0  0  0  0  0
   -7.6080    5.3404  -14.3706 C   0  0  0  0  0  0  0  0  0  0  0  0
   -7.9378    4.6655  -13.2059 C   0  0  0  0  0  0  0  0  0  0  0  0
   -7.2293    4.7278  -12.0603 N   0  0  0  0  0  0  0  0  0  0  0  0
   -6.0863    5.4163  -12.1225 C   0  0  0  0  0  0  0  0  0  0  0  0
   -5.5997    6.0409  -13.2036 N   0  0  0  0  0  0  0  0  0  0  0  0
   -6.3621    5.9768  -14.3191 C   0  0  0  0  0  0  0  0  0  0  0  0
   -5.7074    6.9264  -15.6998 S   0  0  0  0  0  0  0  0  0  0  0  0
   -5.0183    5.6173  -16.8085 C   0  0  1  0  0  0  0  0  0  0  0  0
   -6.0675    5.2082  -17.8596 C   0  0  0  0  0  0  0  0  0  0  0  0
   -5.4523    5.0781  -19.2485 C   0  0  0  0  0  0  0  0  0  0  0  0
   -4.7958    6.3899  -19.6818 C   0  0  0  0  0  0  0  0  0  0  0  0
   -4.0221    7.0629  -18.6248 N   0  0  0  0  0  0  0  0  0  0  0  0
   -3.7377    6.1620  -17.4945 C   0  0  0  0  0  0  0  0  0  0  0  0
  1  2  1  0
  2  3  2  0
  3  4  1  0
  4  5  2  0
  5  6  1  0
  6  7  2  0
  7  8  1  0
  9  8  1  1
  9 10  1  0
 10 11  1  0
 11 12  1  0
 12 13  1  0
 13 14  1  0
  7  2  1  0
 14  9  1  0
M  END
>  <inchikey>  (308) 
ALFNYTGXLMQNRD-UHFFFAOYSA-N

>  <alias>  (308) 
Nc1cncnc1S[C@H]1CCCNC1

>  <tags>  (308) 
{'openbind_xx01zvns2b_c1_knitwork_pure', 'fragmenstein_placed'}

>  <HIPPO Pose ID>  (308) 
46642

>  <ref_pdb>  (308) 
41

>  <smiles>  (308) 
C4575-P57

>  <fragmenstein_runtime>  (308) 
13.177316

>  <fragmenstein_outcome>  (308) 
acceptable

>  <fragmenstein_mode>  (308) 
expansion

>  <fragmenstein_error>  (308) 


>  <HIPPO Compound ID>  (308) 
12342

>  <Energy>  (308) 
52.593437

>  <scratch_subdir>  (308) 
/opt/xchem-fragalysis-2/maxwin/BulkDock/SCRATCH/511031/C4575-P57

$$$$
COCc1nccc([C@@H]2CCCNC2)n1
     RDKit          3D

 15 16  0  0  0  0  0  0  0  0999 V2000
   -5.4122    6.6063  -20.0318 C   0  0  0  0  0  0  0  0  0  0  0  0
   -5.1548    5.2973  -19.5588 O   0  0  0  0  0  0  0  0  0  0  0  0
   -5.0840    5.2314  -18.1369 C   0  0  0  0  0  0  0  0  0  0  0  0
   -6.3918    5.0718  -17.3895 C   0  0  0  0  0  0  0  0  0  0  0  0
   -7.5111    4.7168  -18.0365 N   0  0  0  0  0  0  0  0  0  0  0  0
   -8.5848    4.4510  -17.2747 C   0  0  0  0  0  0  0  0  0  0  0  0
   -8.5811    4.5246  -15.9008 C   0  0  0  0  0  0  0  0  0  0  0  0
   -7.4070    4.9424  -15.3101 C   0  0  0  0  0  0  0  0  0  0  0  0
   -7.1870    5.0053  -13.8128 C   0  0  2  0  0  0  0  0  0  0  0  0
   -8.4445    4.8815  -12.9399 C   0  0  0  0  0  0  0  0  0  0  0  0
   -8.1991    5.3001  -11.4872 C   0  0  0  0  0  0  0  0  0  0  0  0
   -6.7176    5.3785  -11.1442 C   0  0  0  0  0  0  0  0  0  0  0  0
   -5.9987    6.3203  -12.0003 N   0  0  0  0  0  0  0  0  0  0  0  0
   -6.4227    6.2846  -13.4091 C   0  0  0  0  0  0  0  0  0  0  0  0
   -6.3134    5.2207  -16.0525 N   0  0  0  0  0  0  0  0  0  0  0  0
  1  2  1  0
  2  3  1  0
  3  4  1  0
  4  5  2  0
  5  6  1  0
  6  7  2  0
  7  8  1  0
  9  8  1  6
  9 10  1  0
 10 11  1  0
 11 12  1  0
 12 13  1  0
 13 14  1  0
  8 15  2  0
 15  4  1  0
 14  9  1  0
M  END
>  <inchikey>  (309) 
SJMBFPGQBZAELC-UHFFFAOYSA-N

>  <alias>  (309) 
COCc1nccc([C@@H]2CCCNC2)n1

>  <tags>  (309) 
{'openbind_xx01zvns2b_c1_knitwork_pure', 'fragmenstein_placed'}

>  <HIPPO Pose ID>  (309) 
46646

>  <ref_pdb>  (309) 
41

>  <smiles>  (309) 
C4581-P57

>  <fragmenstein_runtime>  (309) 
1.622305

>  <fragmenstein_outcome>  (309) 
acceptable

>  <fragmenstein_mode>  (309) 
expansion

>  <fragmenstein_error>  (309) 


>  <HIPPO Compound ID>  (309) 
116793

>  <Energy>  (309) 
56.75931

>  <scratch_subdir>  (309) 
/opt/xchem-fragalysis-2/maxwin/BulkDock/SCRATCH/511031/C4581-P57

$$$$
C[C@@H](O)c1ncc(C(=O)Nc2ccc3c(c2)CNC3)s1
     RDKit          3D

 20 22  0  0  0  0  0  0  0  0999 V2000
   -6.8818    4.4365  -19.3926 C   0  0  0  0  0  0  0  0  0  0  0  0
   -8.0043    4.7712  -18.4266 C   0  0  1  0  0  0  0  0  0  0  0  0
   -8.9545    3.7125  -18.3821 O   0  0  0  0  0  0  0  0  0  0  0  0
   -7.4648    5.0554  -17.0454 C   0  0  0  0  0  0  0  0  0  0  0  0
   -6.2751    5.5910  -16.8428 N   0  0  0  0  0  0  0  0  0  0  0  0
   -6.1024    5.8560  -15.5074 C   0  0  0  0  0  0  0  0  0  0  0  0
   -7.1486    5.5024  -14.6832 C   0  0  0  0  0  0  0  0  0  0  0  0
   -7.2619    5.8230  -13.2703 C   0  0  0  0  0  0  0  0  0  0  0  0
   -6.8309    6.8446  -12.9015 O   0  0  0  0  0  0  0  0  0  0  0  0
   -7.9245    4.6697  -12.4789 N   0  0  0  0  0  0  0  0  0  0  0  0
   -8.1023    4.4984  -11.1066 C   0  0  0  0  0  0  0  0  0  0  0  0
   -7.8769    5.5797  -10.2372 C   0  0  0  0  0  0  0  0  0  0  0  0
   -8.0057    5.4332   -8.8553 C   0  0  0  0  0  0  0  0  0  0  0  0
   -8.3563    4.1927   -8.3625 C   0  0  0  0  0  0  0  0  0  0  0  0
   -8.5769    3.1162   -9.2151 C   0  0  0  0  0  0  0  0  0  0  0  0
   -8.4675    3.2509  -10.5943 C   0  0  0  0  0  0  0  0  0  0  0  0
   -8.8583    1.9039   -8.3894 C   0  0  0  0  0  0  0  0  0  0  0  0
   -9.1015    2.3982   -7.0103 N   0  0  0  0  0  0  0  0  0  0  0  0
   -8.5321    3.7579   -6.9473 C   0  0  0  0  0  0  0  0  0  0  0  0
   -8.3725    4.7501  -15.6049 S   0  0  0  0  0  0  0  0  0  0  0  0
  2  1  1  6
  2  3  1  0
  2  4  1  0
  4  5  2  0
  5  6  1  0
  6  7  2  0
  7  8  1  0
  8  9  2  0
  8 10  1  0
 10 11  1  0
 11 12  2  0
 12 13  1  0
 13 14  2  0
 14 15  1  0
 15 16  2  0
 15 17  1  0
 17 18  1  0
 18 19  1  0
  7 20  1  0
 20  4  1  0
 16 11  1  0
 19 14  1  0
M  END
>  <inchikey>  (310) 
XAGIKGGZMGYTEK-UHFFFAOYSA-N

>  <alias>  (310) 
C[C@@H](O)c1ncc(C(=O)Nc2ccc3c(c2)CNC3)s1

>  <tags>  (310) 
{'openbind_xx01zvns2b_c1_knitwork_pure', 'fragmenstein_placed'}

>  <HIPPO Pose ID>  (310) 
46795

>  <ref_pdb>  (310) 
41

>  <smiles>  (310) 
C6534-P29

>  <fragmenstein_runtime>  (310) 
2.017209

>  <fragmenstein_outcome>  (310) 
acceptable

>  <fragmenstein_mode>  (310) 
expansion

>  <fragmenstein_error>  (310) 


>  <HIPPO Compound ID>  (310) 
117836

>  <Energy>  (310) 
49.299418

>  <scratch_subdir>  (310) 
/opt/xchem-fragalysis-2/maxwin/BulkDock/SCRATCH/511031/C6534-P29

$$$$
c1ccc2c(-c3nccs3)c[nH]c2c1
     RDKit          3D

 14 16  0  0  0  0  0  0  0  0999 V2000
   -8.5816    4.3868  -17.4325 C   0  0  0  0  0  0  0  0  0  0  0  0
   -7.7605    4.6920  -18.5128 C   0  0  0  0  0  0  0  0  0  0  0  0
   -6.5328    5.3344  -18.3211 C   0  0  0  0  0  0  0  0  0  0  0  0
   -6.1170    5.6591  -17.0145 C   0  0  0  0  0  0  0  0  0  0  0  0
   -4.9541    6.2570  -16.4497 C   0  0  0  0  0  0  0  0  0  0  0  0
   -3.7182    6.8213  -17.2294 C   0  0  0  0  0  0  0  0  0  0  0  0
   -3.7297    6.9601  -18.5386 N   0  0  0  0  0  0  0  0  0  0  0  0
   -2.5596    7.5428  -18.9624 C   0  0  0  0  0  0  0  0  0  0  0  0
   -1.6365    7.8043  -17.9737 C   0  0  0  0  0  0  0  0  0  0  0  0
   -2.2678    7.3211  -16.4542 S   0  0  0  0  0  0  0  0  0  0  0  0
   -5.0976    6.2536  -15.0784 C   0  0  0  0  0  0  0  0  0  0  0  0
   -6.3201    5.7065  -14.7917 N   0  0  0  0  0  0  0  0  0  0  0  0
   -6.9564    5.3246  -15.9495 C   0  0  0  0  0  0  0  0  0  0  0  0
   -8.1941    4.6959  -16.1272 C   0  0  0  0  0  0  0  0  0  0  0  0
  1  2  2  0
  2  3  1  0
  3  4  2  0
  4  5  1  0
  5  6  1  0
  6  7  2  0
  7  8  1  0
  8  9  2  0
  9 10  1  0
  5 11  2  0
 11 12  1  0
 12 13  1  0
 13 14  2  0
 14  1  1  0
 13  4  1  0
 10  6  1  0
M  END
>  <inchikey>  (311) 
MYYHTIOQZNVXLT-UHFFFAOYSA-N

>  <alias>  (311) 
c1ccc2c(-c3nccs3)c[nH]c2c1

>  <tags>  (311) 
{'openbind_xx01zvns2b_c1_knitwork_pure', 'fragmenstein_placed'}

>  <HIPPO Pose ID>  (311) 
46873

>  <ref_pdb>  (311) 
41

>  <smiles>  (311) 
C14615-P29

>  <fragmenstein_runtime>  (311) 
1.453143

>  <fragmenstein_outcome>  (311) 
acceptable

>  <fragmenstein_mode>  (311) 
expansion

>  <fragmenstein_error>  (311) 


>  <HIPPO Compound ID>  (311) 
15706

>  <Energy>  (311) 
33.884488

>  <scratch_subdir>  (311) 
/opt/xchem-fragalysis-2/maxwin/BulkDock/SCRATCH/511031/C14615-P29

$$$$
CCC(=O)Nc1cncnc1
     RDKit          3D

 11 11  0  0  0  0  0  0  0  0999 V2000
   -3.4615    6.7302  -21.1661 C   0  0  0  0  0  0  0  0  0  0  0  0
   -4.8695    6.2767  -20.8493 C   0  0  0  0  0  0  0  0  0  0  0  0
   -5.0594    5.9754  -19.3666 C   0  0  0  0  0  0  0  0  0  0  0  0
   -4.2636    6.1917  -18.5402 O   0  0  0  0  0  0  0  0  0  0  0  0
   -6.4693    5.3313  -19.2622 N   0  0  0  0  0  0  0  0  0  0  0  0
   -7.1930    4.9271  -18.1531 C   0  0  0  0  0  0  0  0  0  0  0  0
   -8.4018    4.2750  -18.3011 C   0  0  0  0  0  0  0  0  0  0  0  0
   -9.1701    3.8819  -17.2683 N   0  0  0  0  0  0  0  0  0  0  0  0
   -8.7023    4.2079  -16.0514 C   0  0  0  0  0  0  0  0  0  0  0  0
   -7.5589    4.8635  -15.7861 N   0  0  0  0  0  0  0  0  0  0  0  0
   -6.8017    5.1747  -16.8563 C   0  0  0  0  0  0  0  0  0  0  0  0
  1  2  1  0
  2  3  1  0
  3  4  2  0
  3  5  1  0
  5  6  1  0
  6  7  2  0
  7  8  1  0
  8  9  2  0
  9 10  1  0
 10 11  2  0
 11  6  1  0
M  END
>  <inchikey>  (312) 
RRJMWBIOMXSNOK-UHFFFAOYSA-N

>  <alias>  (312) 
CCC(=O)Nc1cncnc1

>  <tags>  (312) 
{'openbind_xx01zvns2b_c1_knitwork_pure', 'fragmenstein_placed'}

>  <HIPPO Pose ID>  (312) 
47031

>  <ref_pdb>  (312) 
41

>  <smiles>  (312) 
C69600-P86

>  <fragmenstein_runtime>  (312) 
1.398808

>  <fragmenstein_outcome>  (312) 
acceptable

>  <fragmenstein_mode>  (312) 
expansion

>  <fragmenstein_error>  (312) 


>  <HIPPO Compound ID>  (312) 
15858

>  <Energy>  (312) 
17.103468

>  <scratch_subdir>  (312) 
/opt/xchem-fragalysis-2/maxwin/BulkDock/SCRATCH/511031/C69600-P86

$$$$
CCC(=O)Nc1ccncn1
     RDKit          3D

 11 11  0  0  0  0  0  0  0  0999 V2000
   -4.5138    6.9214  -21.0621 C   0  0  0  0  0  0  0  0  0  0  0  0
   -4.5365    5.4761  -20.6193 C   0  0  0  0  0  0  0  0  0  0  0  0
   -4.9350    5.3587  -19.1572 C   0  0  0  0  0  0  0  0  0  0  0  0
   -4.1588    5.4484  -18.2877 O   0  0  0  0  0  0  0  0  0  0  0  0
   -6.4656    5.0987  -19.1169 N   0  0  0  0  0  0  0  0  0  0  0  0
   -7.2970    4.8154  -18.0562 C   0  0  0  0  0  0  0  0  0  0  0  0
   -6.8354    4.8167  -16.7612 C   0  0  0  0  0  0  0  0  0  0  0  0
   -7.7651    4.5101  -15.7993 C   0  0  0  0  0  0  0  0  0  0  0  0
   -9.0517    4.2507  -16.0762 N   0  0  0  0  0  0  0  0  0  0  0  0
   -9.3951    4.2812  -17.3707 C   0  0  0  0  0  0  0  0  0  0  0  0
   -8.5678    4.5469  -18.3875 N   0  0  0  0  0  0  0  0  0  0  0  0
  1  2  1  0
  2  3  1  0
  3  4  2  0
  3  5  1  0
  5  6  1  0
  6  7  2  0
  7  8  1  0
  8  9  2  0
  9 10  1  0
 10 11  2  0
 11  6  1  0
M  END
>  <inchikey>  (313) 
GZBNTRYJDBCHOB-UHFFFAOYSA-N

>  <alias>  (313) 
CCC(=O)Nc1ccncn1

>  <tags>  (313) 
{'openbind_xx01zvns2b_c1_knitwork_pure', 'fragmenstein_placed'}

>  <HIPPO Pose ID>  (313) 
47041

>  <ref_pdb>  (313) 
41

>  <smiles>  (313) 
C69566-P86

>  <fragmenstein_runtime>  (313) 
0.779713

>  <fragmenstein_outcome>  (313) 
acceptable

>  <fragmenstein_mode>  (313) 
expansion

>  <fragmenstein_error>  (313) 


>  <HIPPO Compound ID>  (313) 
3506

>  <Energy>  (313) 
-51.033424

>  <scratch_subdir>  (313) 
/opt/xchem-fragalysis-2/maxwin/BulkDock/SCRATCH/511031/C69566-P86

$$$$
c1ncc(CNC2(c3nccs3)CCOCC2)cn1
     RDKit          3D

 19 21  0  0  0  0  0  0  0  0999 V2000
   -3.9391    6.3832  -12.8149 C   0  0  0  0  0  0  0  0  0  0  0  0
   -2.9951    6.2306  -13.7531 N   0  0  0  0  0  0  0  0  0  0  0  0
   -3.3543    6.5759  -15.0071 C   0  0  0  0  0  0  0  0  0  0  0  0
   -4.6064    7.0401  -15.3609 C   0  0  0  0  0  0  0  0  0  0  0  0
   -4.9507    7.4282  -16.7680 C   0  0  0  0  0  0  0  0  0  0  0  0
   -6.1106    6.7817  -17.3976 N   0  0  0  0  0  0  0  0  0  0  0  0
   -6.0975    5.3443  -17.7463 C   0  0  0  0  0  0  0  0  0  0  0  0
   -4.9598    5.0953  -18.7682 C   0  0  0  0  0  0  0  0  0  0  0  0
   -5.1273    5.1654  -20.0800 N   0  0  0  0  0  0  0  0  0  0  0  0
   -3.9234    5.0410  -20.7392 C   0  0  0  0  0  0  0  0  0  0  0  0
   -2.8251    4.8825  -19.9303 C   0  0  0  0  0  0  0  0  0  0  0  0
   -3.3126    4.8954  -18.2970 S   0  0  0  0  0  0  0  0  0  0  0  0
   -7.4432    4.9499  -18.4666 C   0  0  0  0  0  0  0  0  0  0  0  0
   -8.5219    4.3292  -17.5769 C   0  0  0  0  0  0  0  0  0  0  0  0
   -8.4934    4.9131  -16.2856 O   0  0  0  0  0  0  0  0  0  0  0  0
   -7.2978    4.6045  -15.5855 C   0  0  0  0  0  0  0  0  0  0  0  0
   -6.0752    4.4817  -16.4963 C   0  0  0  0  0  0  0  0  0  0  0  0
   -5.4699    7.1835  -14.2933 C   0  0  0  0  0  0  0  0  0  0  0  0
   -5.1725    6.8611  -13.0174 N   0  0  0  0  0  0  0  0  0  0  0  0
  1  2  2  0
  2  3  1  0
  3  4  2  0
  4  5  1  0
  5  6  1  0
  6  7  1  0
  7  8  1  0
  8  9  2  0
  9 10  1  0
 10 11  2  0
 11 12  1  0
  7 13  1  0
 13 14  1  0
 14 15  1  0
 15 16  1  0
 16 17  1  0
  4 18  1  0
 18 19  2  0
 19  1  1  0
 17  7  1  0
 12  8  1  0
M  END
>  <inchikey>  (314) 
PWCRYRYMUGZBAH-UHFFFAOYSA-N

>  <alias>  (314) 
c1ncc(CNC2(c3nccs3)CCOCC2)cn1

>  <tags>  (314) 
{'openbind_xx01zvns2b_c1_knitwork_pure', 'fragmenstein_placed'}

>  <HIPPO Pose ID>  (314) 
47138

>  <ref_pdb>  (314) 
41

>  <smiles>  (314) 
C681-P71

>  <fragmenstein_runtime>  (314) 
4.684472

>  <fragmenstein_outcome>  (314) 
acceptable

>  <fragmenstein_mode>  (314) 
expansion

>  <fragmenstein_error>  (314) 


>  <HIPPO Compound ID>  (314) 
3693

>  <Energy>  (314) 
34.046873

>  <scratch_subdir>  (314) 
/opt/xchem-fragalysis-2/maxwin/BulkDock/SCRATCH/511031/C681-P71

$$$$
Cc1csc([C@H](OC(=O)C=Cc2ccncn2)C(F)(F)F)n1
     RDKit          3D

 22 23  0  0  0  0  0  0  0  0999 V2000
   -3.8720    4.8860  -21.6709 C   0  0  0  0  0  0  0  0  0  0  0  0
   -4.1678    5.0198  -20.2237 C   0  0  0  0  0  0  0  0  0  0  0  0
   -3.2644    5.2902  -19.2187 C   0  0  0  0  0  0  0  0  0  0  0  0
   -4.0720    5.3761  -17.7126 S   0  0  0  0  0  0  0  0  0  0  0  0
   -5.5667    4.9488  -18.4795 C   0  0  0  0  0  0  0  0  0  0  0  0
   -6.8598    4.8671  -17.6868 C   0  0  2  0  0  0  0  0  0  0  0  0
   -6.5523    4.4924  -16.3085 O   0  0  0  0  0  0  0  0  0  0  0  0
   -7.5336    4.8277  -15.4350 C   0  0  0  0  0  0  0  0  0  0  0  0
   -8.5337    5.4637  -15.7259 O   0  0  0  0  0  0  0  0  0  0  0  0
   -7.2256    4.3758  -14.0677 C   0  0  0  0  0  0  0  0  0  0  0  0
   -8.0661    4.7628  -13.0957 C   0  0  0  0  0  0  0  0  0  0  0  0
   -7.9631    4.4524  -11.6730 C   0  0  0  0  0  0  0  0  0  0  0  0
   -7.8678    3.1662  -11.1858 C   0  0  0  0  0  0  0  0  0  0  0  0
   -7.8932    3.0416   -9.8136 C   0  0  0  0  0  0  0  0  0  0  0  0
   -7.9994    4.0906   -8.9739 N   0  0  0  0  0  0  0  0  0  0  0  0
   -8.0847    5.2913   -9.5589 C   0  0  0  0  0  0  0  0  0  0  0  0
   -8.0780    5.5335  -10.8763 N   0  0  0  0  0  0  0  0  0  0  0  0
   -7.9180    3.9425  -18.3173 C   0  0  0  0  0  0  0  0  0  0  0  0
   -8.5495    3.2011  -17.3680 F   0  0  0  0  0  0  0  0  0  0  0  0
   -7.4220    3.0645  -19.2147 F   0  0  0  0  0  0  0  0  0  0  0  0
   -8.8964    4.6484  -18.9260 F   0  0  0  0  0  0  0  0  0  0  0  0
   -5.4699    4.8364  -19.7916 N   0  0  0  0  0  0  0  0  0  0  0  0
  1  2  1  0
  2  3  2  0
  3  4  1  0
  4  5  1  0
  5  6  1  0
  6  7  1  1
  7  8  1  0
  8  9  2  0
  8 10  1  0
 10 11  2  3
 11 12  1  0
 12 13  2  0
 13 14  1  0
 14 15  2  0
 15 16  1  0
 16 17  2  0
  6 18  1  0
 18 19  1  0
 18 20  1  0
 18 21  1  0
  5 22  2  0
 22  2  1  0
 17 12  1  0
M  END
>  <inchikey>  (315) 
JDXDOGRTSMSHQM-UHFFFAOYSA-N

>  <alias>  (315) 
Cc1csc([C@H](OC(=O)C=Cc2ccncn2)C(F)(F)F)n1

>  <tags>  (315) 
{'openbind_xx01zvns2b_c1_knitwork_pure', 'fragmenstein_placed'}

>  <HIPPO Pose ID>  (315) 
47163

>  <ref_pdb>  (315) 
41

>  <smiles>  (315) 
C719-P71

>  <fragmenstein_runtime>  (315) 
5.275751

>  <fragmenstein_outcome>  (315) 
acceptable

>  <fragmenstein_mode>  (315) 
expansion

>  <fragmenstein_error>  (315) 


>  <HIPPO Compound ID>  (315) 
50104

>  <Energy>  (315) 
6.483575

>  <scratch_subdir>  (315) 
/opt/xchem-fragalysis-2/maxwin/BulkDock/SCRATCH/511031/C719-P71

$$$$
O=Cc1nccn1Cc1ccnc2ccccc12
     RDKit          3D

 18 20  0  0  0  0  0  0  0  0999 V2000
   -7.6356    7.8505  -12.5297 O   0  0  0  0  0  0  0  0  0  0  0  0
   -7.1606    7.5008  -11.4506 C   0  0  0  0  0  0  0  0  0  0  0  0
   -6.8751    6.1442  -11.0540 C   0  0  0  0  0  0  0  0  0  0  0  0
   -6.3436    5.8693   -9.8732 N   0  0  0  0  0  0  0  0  0  0  0  0
   -6.2711    4.5026   -9.8013 C   0  0  0  0  0  0  0  0  0  0  0  0
   -6.7112    3.9333  -10.9695 C   0  0  0  0  0  0  0  0  0  0  0  0
   -7.0782    4.9852  -11.7707 N   0  0  0  0  0  0  0  0  0  0  0  0
   -7.6720    4.8432  -13.0971 C   0  0  0  0  0  0  0  0  0  0  0  0
   -6.7266    5.0031  -14.2758 C   0  0  0  0  0  0  0  0  0  0  0  0
   -5.3729    5.3202  -14.1179 C   0  0  0  0  0  0  0  0  0  0  0  0
   -4.5863    5.4771  -15.2444 C   0  0  0  0  0  0  0  0  0  0  0  0
   -5.0367    5.3445  -16.5056 N   0  0  0  0  0  0  0  0  0  0  0  0
   -6.3281    5.0196  -16.6831 C   0  0  0  0  0  0  0  0  0  0  0  0
   -6.7972    4.8643  -17.9823 C   0  0  0  0  0  0  0  0  0  0  0  0
   -8.1212    4.5175  -18.2567 C   0  0  0  0  0  0  0  0  0  0  0  0
   -9.0067    4.3217  -17.2112 C   0  0  0  0  0  0  0  0  0  0  0  0
   -8.5619    4.4801  -15.8995 C   0  0  0  0  0  0  0  0  0  0  0  0
   -7.2240    4.8324  -15.6023 C   0  0  0  0  0  0  0  0  0  0  0  0
  1  2  2  0
  2  3  1  0
  3  4  2  0
  4  5  1  0
  5  6  2  0
  6  7  1  0
  7  8  1  0
  8  9  1  0
  9 10  2  0
 10 11  1  0
 11 12  2  0
 12 13  1  0
 13 14  2  0
 14 15  1  0
 15 16  2  0
 16 17  1  0
 17 18  2  0
  7  3  1  0
 18  9  1  0
 18 13  1  0
M  END
>  <inchikey>  (316) 
PMDPHXXJQVQMBL-UHFFFAOYSA-N

>  <alias>  (316) 
O=Cc1nccn1Cc1ccnc2ccccc12

>  <tags>  (316) 
{'openbind_xx01zvns2b_c1_knitwork_pure', 'fragmenstein_placed'}

>  <HIPPO Pose ID>  (316) 
47266

>  <ref_pdb>  (316) 
41

>  <smiles>  (316) 
C54129-P91

>  <fragmenstein_runtime>  (316) 
0.956749

>  <fragmenstein_outcome>  (316) 
acceptable

>  <fragmenstein_mode>  (316) 
expansion

>  <fragmenstein_error>  (316) 


>  <HIPPO Compound ID>  (316) 
56396

>  <Energy>  (316) 
65.073184

>  <scratch_subdir>  (316) 
/opt/xchem-fragalysis-2/maxwin/BulkDock/SCRATCH/511031/C54129-P91

$$$$
COCc1nc(-c2ncc[nH]2)n(-c2ccnc3ccccc23)n1
     RDKit          3D

 23 26  0  0  0  0  0  0  0  0999 V2000
   -6.5412    9.2759  -11.7215 C   0  0  0  0  0  0  0  0  0  0  0  0
   -7.0458    8.5855  -10.5858 O   0  0  0  0  0  0  0  0  0  0  0  0
   -8.0911    7.6567  -10.9230 C   0  0  0  0  0  0  0  0  0  0  0  0
   -7.6346    6.4478  -11.6712 C   0  0  0  0  0  0  0  0  0  0  0  0
   -7.1978    5.3261  -11.0288 N   0  0  0  0  0  0  0  0  0  0  0  0
   -6.6709    4.6080  -12.0002 C   0  0  0  0  0  0  0  0  0  0  0  0
   -5.9921    3.3788  -11.7804 C   0  0  0  0  0  0  0  0  0  0  0  0
   -4.9698    2.9181  -12.4718 N   0  0  0  0  0  0  0  0  0  0  0  0
   -4.6218    1.7415  -11.8623 C   0  0  0  0  0  0  0  0  0  0  0  0
   -5.4466    1.4786  -10.7970 C   0  0  0  0  0  0  0  0  0  0  0  0
   -6.3091    2.5374  -10.7435 N   0  0  0  0  0  0  0  0  0  0  0  0
   -6.8696    5.2402  -13.2130 N   0  0  0  0  0  0  0  0  0  0  0  0
   -6.2241    5.0602  -14.4537 C   0  0  0  0  0  0  0  0  0  0  0  0
   -4.8359    5.1928  -14.4794 C   0  0  0  0  0  0  0  0  0  0  0  0
   -4.2237    5.2092  -15.7109 C   0  0  0  0  0  0  0  0  0  0  0  0
   -4.8873    5.1104  -16.8796 N   0  0  0  0  0  0  0  0  0  0  0  0
   -6.2223    4.9328  -16.8505 C   0  0  0  0  0  0  0  0  0  0  0  0
   -6.8901    4.7665  -18.0568 C   0  0  0  0  0  0  0  0  0  0  0  0
   -8.2616    4.5159  -18.1152 C   0  0  0  0  0  0  0  0  0  0  0  0
   -8.9949    4.4415  -16.9407 C   0  0  0  0  0  0  0  0  0  0  0  0
   -8.3590    4.6473  -15.7163 C   0  0  0  0  0  0  0  0  0  0  0  0
   -6.9648    4.8960  -15.6489 C   0  0  0  0  0  0  0  0  0  0  0  0
   -7.5671    6.3973  -13.0085 N   0  0  0  0  0  0  0  0  0  0  0  0
  1  2  1  0
  2  3  1  0
  3  4  1  0
  4  5  1  0
  5  6  2  0
  6  7  1  0
  7  8  2  0
  8  9  1  0
  9 10  2  0
 10 11  1  0
  6 12  1  0
 12 13  1  0
 13 14  2  0
 14 15  1  0
 15 16  2  0
 16 17  1  0
 17 18  2  0
 18 19  1  0
 19 20  2  0
 20 21  1  0
 21 22  2  0
 12 23  1  0
 23  4  2  0
 11  7  1  0
 22 13  1  0
 22 17  1  0
M  END
>  <inchikey>  (317) 
QIOSOJNEEPMHRR-UHFFFAOYSA-N

>  <alias>  (317) 
COCc1nc(-c2ncc[nH]2)n(-c2ccnc3ccccc23)n1

>  <tags>  (317) 
{'openbind_xx01zvns2b_c1_knitwork_pure', 'fragmenstein_placed'}

>  <HIPPO Pose ID>  (317) 
47276

>  <ref_pdb>  (317) 
41

>  <smiles>  (317) 
C54140-P91

>  <fragmenstein_runtime>  (317) 
2.529481

>  <fragmenstein_outcome>  (317) 
acceptable

>  <fragmenstein_mode>  (317) 
expansion

>  <fragmenstein_error>  (317) 


>  <HIPPO Compound ID>  (317) 
116066

>  <Energy>  (317) 
108.687063

>  <scratch_subdir>  (317) 
/opt/xchem-fragalysis-2/maxwin/BulkDock/SCRATCH/511031/C54140-P91

$$$$
CN(C)CCn1ccnc1[C@@H]1CCCN(c2ccnc3ccccc23)C1
     RDKit          3D

 26 29  0  0  0  0  0  0  0  0999 V2000
  -11.7230   10.8240   -9.8277 C   0  0  0  0  0  0  0  0  0  0  0  0
  -10.5685   10.8444  -10.7380 N   0  0  0  0  0  0  0  0  0  0  0  0
  -10.8944   11.6604  -11.9110 C   0  0  0  0  0  0  0  0  0  0  0  0
  -10.2178    9.4609  -11.1229 C   0  0  0  0  0  0  0  0  0  0  0  0
   -8.7805    9.3227  -11.6510 C   0  0  0  0  0  0  0  0  0  0  0  0
   -7.8443    8.8669  -10.6370 N   0  0  0  0  0  0  0  0  0  0  0  0
   -7.2883    9.6781   -9.6835 C   0  0  0  0  0  0  0  0  0  0  0  0
   -6.4253    8.8752   -8.9838 C   0  0  0  0  0  0  0  0  0  0  0  0
   -6.4299    7.6048   -9.4915 N   0  0  0  0  0  0  0  0  0  0  0  0
   -7.3140    7.6024  -10.4734 C   0  0  0  0  0  0  0  0  0  0  0  0
   -7.6551    6.4183  -11.3369 C   0  0  2  0  0  0  0  0  0  0  0  0
   -7.7220    5.0949  -10.5484 C   0  0  0  0  0  0  0  0  0  0  0  0
   -7.0731    3.9167  -11.2853 C   0  0  0  0  0  0  0  0  0  0  0  0
   -7.3659    3.9205  -12.7867 C   0  0  0  0  0  0  0  0  0  0  0  0
   -7.0741    5.2384  -13.3963 N   0  0  0  0  0  0  0  0  0  0  0  0
   -6.3777    5.1630  -14.6221 C   0  0  0  0  0  0  0  0  0  0  0  0
   -4.9989    5.3883  -14.6770 C   0  0  0  0  0  0  0  0  0  0  0  0
   -4.3653    5.3847  -15.9017 C   0  0  0  0  0  0  0  0  0  0  0  0
   -4.9950    5.1831  -17.0716 N   0  0  0  0  0  0  0  0  0  0  0  0
   -6.3142    4.9260  -17.0390 C   0  0  0  0  0  0  0  0  0  0  0  0
   -6.9686    4.7043  -18.2436 C   0  0  0  0  0  0  0  0  0  0  0  0
   -8.3339    4.4186  -18.3049 C   0  0  0  0  0  0  0  0  0  0  0  0
   -9.0735    4.3566  -17.1352 C   0  0  0  0  0  0  0  0  0  0  0  0
   -8.4451    4.6005  -15.9146 C   0  0  0  0  0  0  0  0  0  0  0  0
   -7.0612    4.8855  -15.8380 C   0  0  0  0  0  0  0  0  0  0  0  0
   -6.6430    6.3051  -12.4798 C   0  0  0  0  0  0  0  0  0  0  0  0
  1  2  1  0
  2  3  1  0
  2  4  1  0
  4  5  1  0
  5  6  1  0
  6  7  1  0
  7  8  2  0
  8  9  1  0
  9 10  2  0
 11 10  1  1
 11 12  1  0
 12 13  1  0
 13 14  1  0
 14 15  1  0
 15 16  1  0
 16 17  2  0
 17 18  1  0
 18 19  2  0
 19 20  1  0
 20 21  2  0
 21 22  1  0
 22 23  2  0
 23 24  1  0
 24 25  2  0
 15 26  1  0
 10  6  1  0
 26 11  1  0
 25 16  1  0
 25 20  1  0
M  END
>  <inchikey>  (318) 
YWARBMLGSYIXRJ-UHFFFAOYSA-N

>  <alias>  (318) 
CN(C)CCn1ccnc1[C@@H]1CCCN(c2ccnc3ccccc23)C1

>  <tags>  (318) 
{'openbind_xx01zvns2b_c1_knitwork_pure', 'fragmenstein_placed'}

>  <HIPPO Pose ID>  (318) 
47285

>  <ref_pdb>  (318) 
41

>  <smiles>  (318) 
C54154-P91

>  <fragmenstein_runtime>  (318) 
8.570921

>  <fragmenstein_outcome>  (318) 
acceptable

>  <fragmenstein_mode>  (318) 
expansion

>  <fragmenstein_error>  (318) 


>  <HIPPO Compound ID>  (318) 
113623

>  <Energy>  (318) 
92.187262

>  <scratch_subdir>  (318) 
/opt/xchem-fragalysis-2/maxwin/BulkDock/SCRATCH/511031/C54154-P91

$$$$
C[C@@H](NCC(=O)Nc1cnc2ccccc2c1)c1cncn1C
     RDKit          3D

 23 25  0  0  0  0  0  0  0  0999 V2000
   -6.1501    7.8024   -9.4722 C   0  0  0  0  0  0  0  0  0  0  0  0
   -5.8473    7.1631  -10.8270 C   0  0  1  0  0  0  0  0  0  0  0  0
   -4.7337    6.1950  -10.7442 N   0  0  0  0  0  0  0  0  0  0  0  0
   -3.4716    6.6908  -11.3501 C   0  0  0  0  0  0  0  0  0  0  0  0
   -3.4627    6.6890  -12.8994 C   0  0  0  0  0  0  0  0  0  0  0  0
   -2.7286    7.3486  -13.5257 O   0  0  0  0  0  0  0  0  0  0  0  0
   -4.5818    5.7178  -13.3582 N   0  0  0  0  0  0  0  0  0  0  0  0
   -5.0724    5.4416  -14.6296 C   0  0  0  0  0  0  0  0  0  0  0  0
   -4.4637    5.8502  -15.8009 C   0  0  0  0  0  0  0  0  0  0  0  0
   -5.0118    5.6869  -17.0324 N   0  0  0  0  0  0  0  0  0  0  0  0
   -6.2510    5.1528  -17.1108 C   0  0  0  0  0  0  0  0  0  0  0  0
   -6.8927    5.0228  -18.3354 C   0  0  0  0  0  0  0  0  0  0  0  0
   -8.2064    4.5461  -18.4359 C   0  0  0  0  0  0  0  0  0  0  0  0
   -8.9096    4.1926  -17.2930 C   0  0  0  0  0  0  0  0  0  0  0  0
   -8.2783    4.2727  -16.0580 C   0  0  0  0  0  0  0  0  0  0  0  0
   -6.9536    4.7333  -15.9666 C   0  0  0  0  0  0  0  0  0  0  0  0
   -6.3054    4.8156  -14.7337 C   0  0  0  0  0  0  0  0  0  0  0  0
   -7.0434    6.4701  -11.3976 C   0  0  0  0  0  0  0  0  0  0  0  0
   -7.8513    6.8698  -12.4484 C   0  0  0  0  0  0  0  0  0  0  0  0
   -8.7629    5.9048  -12.7746 N   0  0  0  0  0  0  0  0  0  0  0  0
   -8.5317    4.9211  -11.9355 C   0  0  0  0  0  0  0  0  0  0  0  0
   -7.5384    5.2307  -11.0499 N   0  0  0  0  0  0  0  0  0  0  0  0
   -7.0872    4.3238  -10.0217 C   0  0  0  0  0  0  0  0  0  0  0  0
  2  1  1  1
  2  3  1  0
  3  4  1  0
  4  5  1  0
  5  6  2  0
  5  7  1  0
  7  8  1  0
  8  9  2  0
  9 10  1  0
 10 11  2  0
 11 12  1  0
 12 13  2  0
 13 14  1  0
 14 15  2  0
 15 16  1  0
 16 17  2  0
  2 18  1  0
 18 19  2  0
 19 20  1  0
 20 21  2  0
 21 22  1  0
 22 23  1  0
 17  8  1  0
 22 18  1  0
 16 11  1  0
M  END
>  <inchikey>  (319) 
QKSQJKFBHNVPPL-UHFFFAOYSA-N

>  <alias>  (319) 
C[C@@H](NCC(=O)Nc1cnc2ccccc2c1)c1cncn1C

>  <tags>  (319) 
{'openbind_xx01zvns2b_c1_knitwork_pure', 'fragmenstein_placed'}

>  <HIPPO Pose ID>  (319) 
47303

>  <ref_pdb>  (319) 
41

>  <smiles>  (319) 
C117723-P91

>  <fragmenstein_runtime>  (319) 
1.838753

>  <fragmenstein_outcome>  (319) 
acceptable

>  <fragmenstein_mode>  (319) 
expansion

>  <fragmenstein_error>  (319) 


>  <HIPPO Compound ID>  (319) 
6213

>  <Energy>  (319) 
67.751574

>  <scratch_subdir>  (319) 
/opt/xchem-fragalysis-2/maxwin/BulkDock/SCRATCH/511031/C117723-P91

$$$$
COCCN1CCC(c2nccn2-c2cnc3ccccc3c2)CC1
     RDKit          3D

 25 28  0  0  0  0  0  0  0  0999 V2000
   -7.9282    5.7653  -11.2395 C   0  0  0  0  0  0  0  0  0  0  0  0
   -7.4730    7.0986  -11.4498 O   0  0  0  0  0  0  0  0  0  0  0  0
   -6.6577    7.5415  -10.3619 C   0  0  0  0  0  0  0  0  0  0  0  0
   -6.3621    9.0553  -10.4317 C   0  0  0  0  0  0  0  0  0  0  0  0
   -5.3115    9.5479  -11.3336 N   0  0  0  0  0  0  0  0  0  0  0  0
   -5.6485    9.5574  -12.7472 C   0  0  0  0  0  0  0  0  0  0  0  0
   -5.2337    8.3061  -13.5123 C   0  0  0  0  0  0  0  0  0  0  0  0
   -3.8055    7.8111  -13.2023 C   0  0  0  0  0  0  0  0  0  0  0  0
   -3.7899    6.3866  -12.6719 C   0  0  0  0  0  0  0  0  0  0  0  0
   -3.2072    6.0118  -11.5429 N   0  0  0  0  0  0  0  0  0  0  0  0
   -3.6453    4.7453  -11.2874 C   0  0  0  0  0  0  0  0  0  0  0  0
   -4.4884    4.3187  -12.2797 C   0  0  0  0  0  0  0  0  0  0  0  0
   -4.4926    5.3185  -13.2264 N   0  0  0  0  0  0  0  0  0  0  0  0
   -5.1373    5.2376  -14.4759 C   0  0  0  0  0  0  0  0  0  0  0  0
   -4.5152    5.6819  -15.6282 C   0  0  0  0  0  0  0  0  0  0  0  0
   -5.0879    5.6270  -16.8517 N   0  0  0  0  0  0  0  0  0  0  0  0
   -6.3418    5.1382  -16.9488 C   0  0  0  0  0  0  0  0  0  0  0  0
   -6.9655    5.0581  -18.1866 C   0  0  0  0  0  0  0  0  0  0  0  0
   -8.2815    4.6031  -18.3207 C   0  0  0  0  0  0  0  0  0  0  0  0
   -9.0061    4.2334  -17.1962 C   0  0  0  0  0  0  0  0  0  0  0  0
   -8.3966    4.2774  -15.9463 C   0  0  0  0  0  0  0  0  0  0  0  0
   -7.0654    4.7043  -15.8178 C   0  0  0  0  0  0  0  0  0  0  0  0
   -6.4238    4.7148  -14.5742 C   0  0  0  0  0  0  0  0  0  0  0  0
   -3.0997    8.7829  -12.2406 C   0  0  0  0  0  0  0  0  0  0  0  0
   -3.9610    9.0876  -11.0107 C   0  0  0  0  0  0  0  0  0  0  0  0
  1  2  1  0
  2  3  1  0
  3  4  1  0
  4  5  1  0
  5  6  1  0
  6  7  1  0
  7  8  1  0
  8  9  1  0
  9 10  2  0
 10 11  1  0
 11 12  2  0
 12 13  1  0
 13 14  1  0
 14 15  2  0
 15 16  1  0
 16 17  2  0
 17 18  1  0
 18 19  2  0
 19 20  1  0
 20 21  2  0
 21 22  1  0
 22 23  2  0
  8 24  1  0
 24 25  1  0
 25  5  1  0
 13  9  1  0
 23 14  1  0
 22 17  1  0
M  END
>  <inchikey>  (320) 
OXHTVTFIVZSZHI-UHFFFAOYSA-N

>  <alias>  (320) 
COCCN1CCC(c2nccn2-c2cnc3ccccc3c2)CC1

>  <tags>  (320) 
{'openbind_xx01zvns2b_c1_knitwork_pure', 'fragmenstein_placed'}

>  <HIPPO Pose ID>  (320) 
47304

>  <ref_pdb>  (320) 
41

>  <smiles>  (320) 
C117724-P91

>  <fragmenstein_runtime>  (320) 
4.735136

>  <fragmenstein_outcome>  (320) 
acceptable

>  <fragmenstein_mode>  (320) 
expansion

>  <fragmenstein_error>  (320) 


>  <HIPPO Compound ID>  (320) 
15765

>  <Energy>  (320) 
97.096562

>  <scratch_subdir>  (320) 
/opt/xchem-fragalysis-2/maxwin/BulkDock/SCRATCH/511031/C117724-P91

$$$$
O=C(CCc1cnc2ccccc2c1)NCc1ncc[nH]1
     RDKit          3D

 21 23  0  0  0  0  0  0  0  0999 V2000
   -4.3186    8.4767  -13.3528 O   0  0  0  0  0  0  0  0  0  0  0  0
   -4.1522    7.5108  -12.7219 C   0  0  0  0  0  0  0  0  0  0  0  0
   -3.1319    6.4464  -13.0988 C   0  0  0  0  0  0  0  0  0  0  0  0
   -3.7868    5.1236  -13.5155 C   0  0  0  0  0  0  0  0  0  0  0  0
   -4.6600    5.1714  -14.7402 C   0  0  0  0  0  0  0  0  0  0  0  0
   -4.1726    5.5798  -15.9713 C   0  0  0  0  0  0  0  0  0  0  0  0
   -4.8830    5.5656  -17.1215 N   0  0  0  0  0  0  0  0  0  0  0  0
   -6.1583    5.1355  -17.0781 C   0  0  0  0  0  0  0  0  0  0  0  0
   -6.9086    5.0756  -18.2455 C   0  0  0  0  0  0  0  0  0  0  0  0
   -8.2382    4.6413  -18.2503 C   0  0  0  0  0  0  0  0  0  0  0  0
   -8.8454    4.2618  -17.0620 C   0  0  0  0  0  0  0  0  0  0  0  0
   -8.1085    4.2908  -15.8811 C   0  0  0  0  0  0  0  0  0  0  0  0
   -6.7677    4.7233  -15.8790 C   0  0  0  0  0  0  0  0  0  0  0  0
   -5.9848    4.7322  -14.7120 C   0  0  0  0  0  0  0  0  0  0  0  0
   -4.9087    6.9816  -11.4803 N   0  0  0  0  0  0  0  0  0  0  0  0
   -6.0807    7.4820  -10.8199 C   0  0  0  0  0  0  0  0  0  0  0  0
   -7.2193    6.7811  -11.4753 C   0  0  0  0  0  0  0  0  0  0  0  0
   -7.8984    7.2010  -12.5240 N   0  0  0  0  0  0  0  0  0  0  0  0
   -8.6492    6.1351  -12.9300 C   0  0  0  0  0  0  0  0  0  0  0  0
   -8.4693    5.0638  -12.0898 C   0  0  0  0  0  0  0  0  0  0  0  0
   -7.5979    5.5037  -11.1359 N   0  0  0  0  0  0  0  0  0  0  0  0
  1  2  2  0
  2  3  1  0
  3  4  1  0
  4  5  1  0
  5  6  2  0
  6  7  1  0
  7  8  2  0
  8  9  1  0
  9 10  2  0
 10 11  1  0
 11 12  2  0
 12 13  1  0
 13 14  2  0
  2 15  1  0
 15 16  1  0
 16 17  1  0
 17 18  2  0
 18 19  1  0
 19 20  2  0
 20 21  1  0
 14  5  1  0
 21 17  1  0
 13  8  1  0
M  END
>  <inchikey>  (321) 
PAOSGZDBDKQGKZ-UHFFFAOYSA-N

>  <alias>  (321) 
O=C(CCc1cnc2ccccc2c1)NCc1ncc[nH]1

>  <tags>  (321) 
{'openbind_xx01zvns2b_c1_knitwork_pure', 'fragmenstein_placed'}

>  <HIPPO Pose ID>  (321) 
47316

>  <ref_pdb>  (321) 
41

>  <smiles>  (321) 
C117737-P91

>  <fragmenstein_runtime>  (321) 
1.250617

>  <fragmenstein_outcome>  (321) 
acceptable

>  <fragmenstein_mode>  (321) 
expansion

>  <fragmenstein_error>  (321) 


>  <HIPPO Compound ID>  (321) 
116156

>  <Energy>  (321) 
40.686514

>  <scratch_subdir>  (321) 
/opt/xchem-fragalysis-2/maxwin/BulkDock/SCRATCH/511031/C117737-P91

$$$$
CC(C)Cn1cnc(S(=O)(=O)Oc2cnc3ccccc3c2)c1
     RDKit          3D

 23 25  0  0  0  0  0  0  0  0999 V2000
   -9.1250    7.9041  -11.8909 C   0  0  0  0  0  0  0  0  0  0  0  0
   -7.8305    7.1438  -11.6222 C   0  0  0  0  0  0  0  0  0  0  0  0
   -8.0931    5.7398  -11.0787 C   0  0  0  0  0  0  0  0  0  0  0  0
   -6.9350    7.9598  -10.6677 C   0  0  0  0  0  0  0  0  0  0  0  0
   -5.6308    8.1335  -11.2806 N   0  0  0  0  0  0  0  0  0  0  0  0
   -5.3012    9.1162  -12.1711 C   0  0  0  0  0  0  0  0  0  0  0  0
   -4.2900    8.7498  -12.9255 N   0  0  0  0  0  0  0  0  0  0  0  0
   -3.9296    7.4980  -12.4543 C   0  0  0  0  0  0  0  0  0  0  0  0
   -2.8533    6.3914  -13.2537 S   0  0  0  0  0  0  0  0  0  0  0  0
   -2.3607    7.0692  -14.4331 O   0  0  0  0  0  0  0  0  0  0  0  0
   -1.9715    5.9241  -12.2010 O   0  0  0  0  0  0  0  0  0  0  0  0
   -3.9170    5.1975  -13.6141 O   0  0  0  0  0  0  0  0  0  0  0  0
   -4.6904    5.2246  -14.7406 C   0  0  0  0  0  0  0  0  0  0  0  0
   -4.1954    5.4456  -16.0126 C   0  0  0  0  0  0  0  0  0  0  0  0
   -4.9452    5.3826  -17.1354 N   0  0  0  0  0  0  0  0  0  0  0  0
   -6.2415    5.0489  -17.0197 C   0  0  0  0  0  0  0  0  0  0  0  0
   -7.0155    4.9268  -18.1645 C   0  0  0  0  0  0  0  0  0  0  0  0
   -8.3608    4.5596  -18.1042 C   0  0  0  0  0  0  0  0  0  0  0  0
   -8.9551    4.3201  -16.8715 C   0  0  0  0  0  0  0  0  0  0  0  0
   -8.2024    4.4401  -15.7034 C   0  0  0  0  0  0  0  0  0  0  0  0
   -6.8434    4.7979  -15.7676 C   0  0  0  0  0  0  0  0  0  0  0  0
   -6.0363    4.8875  -14.6199 C   0  0  0  0  0  0  0  0  0  0  0  0
   -4.6905    7.1509  -11.3562 C   0  0  0  0  0  0  0  0  0  0  0  0
  1  2  1  0
  2  3  1  0
  2  4  1  0
  4  5  1  0
  5  6  1  0
  6  7  2  0
  7  8  1  0
  8  9  1  0
  9 10  2  0
  9 11  2  0
  9 12  1  0
 12 13  1  0
 13 14  2  0
 14 15  1  0
 15 16  2  0
 16 17  1  0
 17 18  2  0
 18 19  1  0
 19 20  2  0
 20 21  1  0
 21 22  2  0
  8 23  2  0
 23  5  1  0
 22 13  1  0
 21 16  1  0
M  END
>  <inchikey>  (322) 
PROOLVQKWUVDRF-UHFFFAOYSA-N

>  <alias>  (322) 
CC(C)Cn1cnc(S(=O)(=O)Oc2cnc3ccccc3c2)c1

>  <tags>  (322) 
{'openbind_xx01zvns2b_c1_knitwork_pure', 'fragmenstein_placed'}

>  <HIPPO Pose ID>  (322) 
47317

>  <ref_pdb>  (322) 
41

>  <smiles>  (322) 
C117738-P91

>  <fragmenstein_runtime>  (322) 
4.246027

>  <fragmenstein_outcome>  (322) 
acceptable

>  <fragmenstein_mode>  (322) 
expansion

>  <fragmenstein_error>  (322) 


>  <HIPPO Compound ID>  (322) 
8033

>  <Energy>  (322) 
145.164234

>  <scratch_subdir>  (322) 
/opt/xchem-fragalysis-2/maxwin/BulkDock/SCRATCH/511031/C117738-P91

$$$$
CC(C)Cn1cnc(S(=O)(=O)Nc2cnc3ccccc3c2)c1
     RDKit          3D

 23 25  0  0  0  0  0  0  0  0999 V2000
   -8.0853    5.8110  -11.0905 C   0  0  0  0  0  0  0  0  0  0  0  0
   -7.8532    7.1753  -11.7393 C   0  0  0  0  0  0  0  0  0  0  0  0
   -9.1632    7.8736  -12.0891 C   0  0  0  0  0  0  0  0  0  0  0  0
   -6.9998    8.0943  -10.8405 C   0  0  0  0  0  0  0  0  0  0  0  0
   -5.6839    8.2411  -11.4345 N   0  0  0  0  0  0  0  0  0  0  0  0
   -5.3621    9.1183  -12.4318 C   0  0  0  0  0  0  0  0  0  0  0  0
   -4.3270    8.6916  -13.1188 N   0  0  0  0  0  0  0  0  0  0  0  0
   -3.9363    7.5256  -12.4859 C   0  0  0  0  0  0  0  0  0  0  0  0
   -2.8376    6.3399  -13.1313 S   0  0  0  0  0  0  0  0  0  0  0  0
   -2.1979    6.9404  -14.2777 O   0  0  0  0  0  0  0  0  0  0  0  0
   -2.0917    5.9006  -11.9689 O   0  0  0  0  0  0  0  0  0  0  0  0
   -3.8133    5.0258  -13.5856 N   0  0  0  0  0  0  0  0  0  0  0  0
   -4.6814    5.1563  -14.7152 C   0  0  0  0  0  0  0  0  0  0  0  0
   -4.2121    5.4886  -15.9778 C   0  0  0  0  0  0  0  0  0  0  0  0
   -4.9707    5.4814  -17.0984 N   0  0  0  0  0  0  0  0  0  0  0  0
   -6.2540    5.1023  -16.9929 C   0  0  0  0  0  0  0  0  0  0  0  0
   -7.0291    5.0099  -18.1394 C   0  0  0  0  0  0  0  0  0  0  0  0
   -8.3645    4.6068  -18.0910 C   0  0  0  0  0  0  0  0  0  0  0  0
   -8.9500    4.3086  -16.8671 C   0  0  0  0  0  0  0  0  0  0  0  0
   -8.1936    4.3909  -15.6983 C   0  0  0  0  0  0  0  0  0  0  0  0
   -6.8403    4.7719  -15.7516 C   0  0  0  0  0  0  0  0  0  0  0  0
   -6.0233    4.7977  -14.6057 C   0  0  0  0  0  0  0  0  0  0  0  0
   -4.7133    7.2885  -11.3696 C   0  0  0  0  0  0  0  0  0  0  0  0
  1  2  1  0
  2  3  1  0
  2  4  1  0
  4  5  1  0
  5  6  1  0
  6  7  2  0
  7  8  1  0
  8  9  1  0
  9 10  2  0
  9 11  2  0
  9 12  1  0
 12 13  1  0
 13 14  2  0
 14 15  1  0
 15 16  2  0
 16 17  1  0
 17 18  2  0
 18 19  1  0
 19 20  2  0
 20 21  1  0
 21 22  2  0
  8 23  2  0
 23  5  1  0
 22 13  1  0
 21 16  1  0
M  END
>  <inchikey>  (323) 
XEKWTSNFBRUFTF-UHFFFAOYSA-N

>  <alias>  (323) 
CC(C)Cn1cnc(S(=O)(=O)Nc2cnc3ccccc3c2)c1

>  <tags>  (323) 
{'openbind_xx01zvns2b_c1_knitwork_pure', 'fragmenstein_placed'}

>  <HIPPO Pose ID>  (323) 
47318

>  <ref_pdb>  (323) 
41

>  <smiles>  (323) 
C117739-P91

>  <fragmenstein_runtime>  (323) 
3.796016

>  <fragmenstein_outcome>  (323) 
acceptable

>  <fragmenstein_mode>  (323) 
expansion

>  <fragmenstein_error>  (323) 


>  <HIPPO Compound ID>  (323) 
5838

>  <Energy>  (323) 
91.830436

>  <scratch_subdir>  (323) 
/opt/xchem-fragalysis-2/maxwin/BulkDock/SCRATCH/511031/C117739-P91

$$$$
CCn1ccnc1[C@H](C)NS(=O)(=O)c1cnc2ccccc2c1
     RDKit          3D

 23 25  0  0  0  0  0  0  0  0999 V2000
   -7.9995    7.7189  -10.9796 C   0  0  0  0  0  0  0  0  0  0  0  0
   -7.0533    6.5453  -11.1221 C   0  0  0  0  0  0  0  0  0  0  0  0
   -5.7965    6.8091  -10.4543 N   0  0  0  0  0  0  0  0  0  0  0  0
   -5.6121    6.5823   -9.1111 C   0  0  0  0  0  0  0  0  0  0  0  0
   -4.3322    6.9853   -8.8410 C   0  0  0  0  0  0  0  0  0  0  0  0
   -3.7304    7.4522   -9.9740 N   0  0  0  0  0  0  0  0  0  0  0  0
   -4.6136    7.3224  -10.9563 C   0  0  0  0  0  0  0  0  0  0  0  0
   -4.2611    7.6700  -12.3782 C   0  0  2  0  0  0  0  0  0  0  0  0
   -5.3164    8.2575  -13.2919 C   0  0  0  0  0  0  0  0  0  0  0  0
   -3.4707    6.6127  -13.0271 N   0  0  0  0  0  0  0  0  0  0  0  0
   -3.9908    5.0418  -13.2451 S   0  0  0  0  0  0  0  0  0  0  0  0
   -4.8344    4.6353  -12.1483 O   0  0  0  0  0  0  0  0  0  0  0  0
   -2.8079    4.2826  -13.5899 O   0  0  0  0  0  0  0  0  0  0  0  0
   -4.9751    5.1083  -14.6907 C   0  0  0  0  0  0  0  0  0  0  0  0
   -4.3769    5.4197  -15.8914 C   0  0  0  0  0  0  0  0  0  0  0  0
   -5.0424    5.4223  -17.0682 N   0  0  0  0  0  0  0  0  0  0  0  0
   -6.3410    5.0564  -17.0679 C   0  0  0  0  0  0  0  0  0  0  0  0
   -7.0336    4.9677  -18.2661 C   0  0  0  0  0  0  0  0  0  0  0  0
   -8.3774    4.5840  -18.3128 C   0  0  0  0  0  0  0  0  0  0  0  0
   -9.0591    4.2974  -17.1374 C   0  0  0  0  0  0  0  0  0  0  0  0
   -8.3895    4.3744  -15.9192 C   0  0  0  0  0  0  0  0  0  0  0  0
   -7.0337    4.7386  -15.8777 C   0  0  0  0  0  0  0  0  0  0  0  0
   -6.3231    4.7643  -14.6731 C   0  0  0  0  0  0  0  0  0  0  0  0
  1  2  1  0
  2  3  1  0
  3  4  1  0
  4  5  2  0
  5  6  1  0
  6  7  2  0
  7  8  1  0
  8  9  1  6
  8 10  1  0
 10 11  1  0
 11 12  2  0
 11 13  2  0
 11 14  1  0
 14 15  2  0
 15 16  1  0
 16 17  2  0
 17 18  1  0
 18 19  2  0
 19 20  1  0
 20 21  2  0
 21 22  1  0
 22 23  2  0
  7  3  1  0
 23 14  1  0
 22 17  1  0
M  END
>  <inchikey>  (324) 
GRZYTPSCVCWFMT-UHFFFAOYSA-N

>  <alias>  (324) 
CCn1ccnc1[C@H](C)NS(=O)(=O)c1cnc2ccccc2c1

>  <tags>  (324) 
{'openbind_xx01zvns2b_c1_knitwork_pure', 'fragmenstein_placed'}

>  <HIPPO Pose ID>  (324) 
47324

>  <ref_pdb>  (324) 
41

>  <smiles>  (324) 
C117745-P91

>  <fragmenstein_runtime>  (324) 
1.606715

>  <fragmenstein_outcome>  (324) 
acceptable

>  <fragmenstein_mode>  (324) 
expansion

>  <fragmenstein_error>  (324) 


>  <HIPPO Compound ID>  (324) 
116610

>  <Energy>  (324) 
-36.613988

>  <scratch_subdir>  (324) 
/opt/xchem-fragalysis-2/maxwin/BulkDock/SCRATCH/511031/C117745-P91

$$$$
CCn1cncc1COC(=O)[C@@H](C)Oc1cnc2ccccc2c1
     RDKit          3D

 24 26  0  0  0  0  0  0  0  0999 V2000
   -6.0853    3.0582  -10.7416 C   0  0  0  0  0  0  0  0  0  0  0  0
   -7.1741    3.9608  -10.1870 C   0  0  0  0  0  0  0  0  0  0  0  0
   -7.6021    4.9645  -11.1443 N   0  0  0  0  0  0  0  0  0  0  0  0
   -8.5507    4.7392  -12.1020 C   0  0  0  0  0  0  0  0  0  0  0  0
   -8.7489    5.7982  -12.8560 N   0  0  0  0  0  0  0  0  0  0  0  0
   -7.8852    6.7421  -12.3740 C   0  0  0  0  0  0  0  0  0  0  0  0
   -7.1407    6.2476  -11.3206 C   0  0  0  0  0  0  0  0  0  0  0  0
   -6.0166    6.8678  -10.5832 C   0  0  0  0  0  0  0  0  0  0  0  0
   -4.8353    6.4319  -11.2589 O   0  0  0  0  0  0  0  0  0  0  0  0
   -4.4157    7.2314  -12.2791 C   0  0  0  0  0  0  0  0  0  0  0  0
   -4.7498    8.3989  -12.4476 O   0  0  0  0  0  0  0  0  0  0  0  0
   -3.4742    6.4753  -13.2121 C   0  0  1  0  0  0  0  0  0  0  0  0
   -2.1396    6.2413  -12.5171 C   0  0  0  0  0  0  0  0  0  0  0  0
   -4.0259    5.1988  -13.5570 O   0  0  0  0  0  0  0  0  0  0  0  0
   -4.7322    5.1995  -14.7245 C   0  0  0  0  0  0  0  0  0  0  0  0
   -4.1789    5.4986  -15.9555 C   0  0  0  0  0  0  0  0  0  0  0  0
   -4.8575    5.4543  -17.1261 N   0  0  0  0  0  0  0  0  0  0  0  0
   -6.1521    5.0739  -17.0928 C   0  0  0  0  0  0  0  0  0  0  0  0
   -6.8823    4.9881  -18.2716 C   0  0  0  0  0  0  0  0  0  0  0  0
   -8.2273    4.6018  -18.2835 C   0  0  0  0  0  0  0  0  0  0  0  0
   -8.8721    4.3026  -17.0916 C   0  0  0  0  0  0  0  0  0  0  0  0
   -8.1610    4.3677  -15.8969 C   0  0  0  0  0  0  0  0  0  0  0  0
   -6.8039    4.7413  -15.8886 C   0  0  0  0  0  0  0  0  0  0  0  0
   -6.0519    4.7804  -14.7047 C   0  0  0  0  0  0  0  0  0  0  0  0
  1  2  1  0
  2  3  1  0
  3  4  1  0
  4  5  2  0
  5  6  1  0
  6  7  2  0
  7  8  1  0
  8  9  1  0
  9 10  1  0
 10 11  2  0
 10 12  1  0
 12 13  1  1
 12 14  1  0
 14 15  1  0
 15 16  2  0
 16 17  1  0
 17 18  2  0
 18 19  1  0
 19 20  2  0
 20 21  1  0
 21 22  2  0
 22 23  1  0
 23 24  2  0
  7  3  1  0
 24 15  1  0
 23 18  1  0
M  END
>  <inchikey>  (325) 
LPHBTRFNZSWFGW-UHFFFAOYSA-N

>  <alias>  (325) 
CCn1cncc1COC(=O)[C@@H](C)Oc1cnc2ccccc2c1

>  <tags>  (325) 
{'openbind_xx01zvns2b_c1_knitwork_pure', 'fragmenstein_placed'}

>  <HIPPO Pose ID>  (325) 
47326

>  <ref_pdb>  (325) 
41

>  <smiles>  (325) 
C117747-P91

>  <fragmenstein_runtime>  (325) 
1.301506

>  <fragmenstein_outcome>  (325) 
acceptable

>  <fragmenstein_mode>  (325) 
expansion

>  <fragmenstein_error>  (325) 


>  <HIPPO Compound ID>  (325) 
698

>  <Energy>  (325) 
63.333536

>  <scratch_subdir>  (325) 
/opt/xchem-fragalysis-2/maxwin/BulkDock/SCRATCH/511031/C117747-P91

$$$$
CCn1cncc1COC(=O)CCc1cnc2ccccc2c1
     RDKit          3D

 23 25  0  0  0  0  0  0  0  0999 V2000
   -6.1253    3.1905  -10.4930 C   0  0  0  0  0  0  0  0  0  0  0  0
   -7.2839    4.0791  -10.0768 C   0  0  0  0  0  0  0  0  0  0  0  0
   -7.6723    5.0099  -11.1198 N   0  0  0  0  0  0  0  0  0  0  0  0
   -8.5676    4.7055  -12.1064 C   0  0  0  0  0  0  0  0  0  0  0  0
   -8.7761    5.7244  -12.9102 N   0  0  0  0  0  0  0  0  0  0  0  0
   -7.9535    6.7135  -12.4503 C   0  0  0  0  0  0  0  0  0  0  0  0
   -7.2366    6.2935  -11.3466 C   0  0  0  0  0  0  0  0  0  0  0  0
   -6.1641    6.9912  -10.6026 C   0  0  0  0  0  0  0  0  0  0  0  0
   -4.9354    6.5666  -11.2004 O   0  0  0  0  0  0  0  0  0  0  0  0
   -4.5423    7.2785  -12.2932 C   0  0  0  0  0  0  0  0  0  0  0  0
   -4.9965    8.3593  -12.6432 O   0  0  0  0  0  0  0  0  0  0  0  0
   -3.4306    6.5588  -13.0089 C   0  0  0  0  0  0  0  0  0  0  0  0
   -3.8619    5.1793  -13.5018 C   0  0  0  0  0  0  0  0  0  0  0  0
   -4.7123    5.1897  -14.7424 C   0  0  0  0  0  0  0  0  0  0  0  0
   -4.1909    5.5434  -15.9767 C   0  0  0  0  0  0  0  0  0  0  0  0
   -4.8793    5.5118  -17.1395 N   0  0  0  0  0  0  0  0  0  0  0  0
   -6.1657    5.1099  -17.1061 C   0  0  0  0  0  0  0  0  0  0  0  0
   -6.8975    5.0228  -18.2839 C   0  0  0  0  0  0  0  0  0  0  0  0
   -8.2365    4.6169  -18.2964 C   0  0  0  0  0  0  0  0  0  0  0  0
   -8.8739    4.3006  -17.1055 C   0  0  0  0  0  0  0  0  0  0  0  0
   -8.1594    4.3658  -15.9129 C   0  0  0  0  0  0  0  0  0  0  0  0
   -6.8069    4.7575  -15.9048 C   0  0  0  0  0  0  0  0  0  0  0  0
   -6.0460    4.7875  -14.7252 C   0  0  0  0  0  0  0  0  0  0  0  0
  1  2  1  0
  2  3  1  0
  3  4  1  0
  4  5  2  0
  5  6  1  0
  6  7  2  0
  7  8  1  0
  8  9  1  0
  9 10  1  0
 10 11  2  0
 10 12  1  0
 12 13  1  0
 13 14  1  0
 14 15  2  0
 15 16  1  0
 16 17  2  0
 17 18  1  0
 18 19  2  0
 19 20  1  0
 20 21  2  0
 21 22  1  0
 22 23  2  0
  7  3  1  0
 23 14  1  0
 22 17  1  0
M  END
>  <inchikey>  (326) 
HQJVWWZLOLLFOC-UHFFFAOYSA-N

>  <alias>  (326) 
CCn1cncc1COC(=O)CCc1cnc2ccccc2c1

>  <tags>  (326) 
{'openbind_xx01zvns2b_c1_knitwork_pure', 'fragmenstein_placed'}

>  <HIPPO Pose ID>  (326) 
47327

>  <ref_pdb>  (326) 
41

>  <smiles>  (326) 
C117748-P91

>  <fragmenstein_runtime>  (326) 
1.448076

>  <fragmenstein_outcome>  (326) 
acceptable

>  <fragmenstein_mode>  (326) 
expansion

>  <fragmenstein_error>  (326) 


>  <HIPPO Compound ID>  (326) 
117748

>  <Energy>  (326) 
18.499077

>  <scratch_subdir>  (326) 
/opt/xchem-fragalysis-2/maxwin/BulkDock/SCRATCH/511031/C117748-P91

$$$$
CCOc1ccccc1-c1nccn1-c1cnc2ccccc2c1
     RDKit          3D

 24 27  0  0  0  0  0  0  0  0999 V2000
   -6.9409    7.2389   -9.8900 C   0  0  0  0  0  0  0  0  0  0  0  0
   -7.7928    6.8844  -11.0971 C   0  0  0  0  0  0  0  0  0  0  0  0
   -7.0102    6.6700  -12.2689 O   0  0  0  0  0  0  0  0  0  0  0  0
   -6.3209    7.7852  -12.6978 C   0  0  0  0  0  0  0  0  0  0  0  0
   -6.9839    8.9722  -13.0175 C   0  0  0  0  0  0  0  0  0  0  0  0
   -6.2525   10.0845  -13.4371 C   0  0  0  0  0  0  0  0  0  0  0  0
   -4.8634   10.0110  -13.5434 C   0  0  0  0  0  0  0  0  0  0  0  0
   -4.1997    8.8180  -13.2495 C   0  0  0  0  0  0  0  0  0  0  0  0
   -4.9216    7.6914  -12.8469 C   0  0  0  0  0  0  0  0  0  0  0  0
   -4.2335    6.4311  -12.5738 C   0  0  0  0  0  0  0  0  0  0  0  0
   -3.3935    6.2008  -11.5786 N   0  0  0  0  0  0  0  0  0  0  0  0
   -3.2522    4.8375  -11.5266 C   0  0  0  0  0  0  0  0  0  0  0  0
   -3.9759    4.2289  -12.5244 C   0  0  0  0  0  0  0  0  0  0  0  0
   -4.5066    5.2582  -13.2581 N   0  0  0  0  0  0  0  0  0  0  0  0
   -5.1598    5.1418  -14.4917 C   0  0  0  0  0  0  0  0  0  0  0  0
   -4.5438    5.6174  -15.6353 C   0  0  0  0  0  0  0  0  0  0  0  0
   -5.1190    5.5726  -16.8557 N   0  0  0  0  0  0  0  0  0  0  0  0
   -6.3760    5.0914  -16.9449 C   0  0  0  0  0  0  0  0  0  0  0  0
   -7.0065    5.0303  -18.1798 C   0  0  0  0  0  0  0  0  0  0  0  0
   -8.3286    4.5941  -18.3108 C   0  0  0  0  0  0  0  0  0  0  0  0
   -9.0522    4.2272  -17.1847 C   0  0  0  0  0  0  0  0  0  0  0  0
   -8.4359    4.2515  -15.9371 C   0  0  0  0  0  0  0  0  0  0  0  0
   -7.0979    4.6534  -15.8109 C   0  0  0  0  0  0  0  0  0  0  0  0
   -6.4497    4.6367  -14.5705 C   0  0  0  0  0  0  0  0  0  0  0  0
  1  2  1  0
  2  3  1  0
  3  4  1  0
  4  5  2  0
  5  6  1  0
  6  7  2  0
  7  8  1  0
  8  9  2  0
  9 10  1  0
 10 11  2  0
 11 12  1  0
 12 13  2  0
 13 14  1  0
 14 15  1  0
 15 16  2  0
 16 17  1  0
 17 18  2  0
 18 19  1  0
 19 20  2  0
 20 21  1  0
 21 22  2  0
 22 23  1  0
 23 24  2  0
  9  4  1  0
 14 10  1  0
 24 15  1  0
 23 18  1  0
M  END
>  <inchikey>  (327) 
ZGUYBYADFRSMCR-UHFFFAOYSA-N

>  <alias>  (327) 
CCOc1ccccc1-c1nccn1-c1cnc2ccccc2c1

>  <tags>  (327) 
{'openbind_xx01zvns2b_c1_knitwork_pure', 'fragmenstein_placed'}

>  <HIPPO Pose ID>  (327) 
47328

>  <ref_pdb>  (327) 
41

>  <smiles>  (327) 
C117749-P91

>  <fragmenstein_runtime>  (327) 
1.393745

>  <fragmenstein_outcome>  (327) 
acceptable

>  <fragmenstein_mode>  (327) 
expansion

>  <fragmenstein_error>  (327) 


>  <HIPPO Compound ID>  (327) 
49928

>  <Energy>  (327) 
109.279536

>  <scratch_subdir>  (327) 
/opt/xchem-fragalysis-2/maxwin/BulkDock/SCRATCH/511031/C117749-P91

$$$$
CCc1nc(=N)c(CNC(=O)CN2CCc3sccc3C2)c[nH]1
     RDKit          3D

 23 25  0  0  0  0  0  0  0  0999 V2000
   -7.8634    3.1113  -11.7495 C   0  0  0  0  0  0  0  0  0  0  0  0
   -6.9045    2.2459  -12.5517 C   0  0  0  0  0  0  0  0  0  0  0  0
   -5.5667    2.9044  -12.8030 C   0  0  0  0  0  0  0  0  0  0  0  0
   -5.5064    4.1998  -12.8453 N   0  0  0  0  0  0  0  0  0  0  0  0
   -4.3039    4.7974  -13.1067 C   0  0  0  0  0  0  0  0  0  0  0  0
   -4.2279    6.0475  -12.8095 N   0  0  0  0  0  0  0  0  0  0  0  0
   -3.2386    3.9781  -13.7629 C   0  0  0  0  0  0  0  0  0  0  0  0
   -2.1994    4.6665  -14.5734 C   0  0  0  0  0  0  0  0  0  0  0  0
   -2.8138    5.0238  -15.8227 N   0  0  0  0  0  0  0  0  0  0  0  0
   -2.3569    6.0121  -16.9197 C   0  0  0  0  0  0  0  0  0  0  0  0
   -1.3736    6.6322  -17.0165 O   0  0  0  0  0  0  0  0  0  0  0  0
   -3.5031    6.0577  -17.9747 C   0  0  0  0  0  0  0  0  0  0  0  0
   -4.7969    5.6105  -17.4052 N   0  0  0  0  0  0  0  0  0  0  0  0
   -5.3553    6.6137  -16.4547 C   0  0  0  0  0  0  0  0  0  0  0  0
   -6.5179    6.0043  -15.6477 C   0  0  0  0  0  0  0  0  0  0  0  0
   -7.4310    5.2867  -16.5732 C   0  0  0  0  0  0  0  0  0  0  0  0
   -8.9403    4.6996  -16.0925 S   0  0  0  0  0  0  0  0  0  0  0  0
   -9.3044    4.2150  -17.6913 C   0  0  0  0  0  0  0  0  0  0  0  0
   -8.2279    4.3824  -18.5358 C   0  0  0  0  0  0  0  0  0  0  0  0
   -7.1130    4.9883  -17.8816 C   0  0  0  0  0  0  0  0  0  0  0  0
   -5.7830    5.3425  -18.4893 C   0  0  0  0  0  0  0  0  0  0  0  0
   -3.3623    2.6487  -13.6208 C   0  0  0  0  0  0  0  0  0  0  0  0
   -4.4737    2.1004  -13.0405 N   0  0  0  0  0  0  0  0  0  0  0  0
  1  2  1  0
  2  3  1  0
  3  4  2  0
  4  5  1  0
  5  6  2  3
  5  7  1  0
  7  8  1  0
  8  9  1  0
  9 10  1  0
 10 11  2  0
 10 12  1  0
 12 13  1  0
 13 14  1  0
 14 15  1  0
 15 16  1  0
 16 17  1  0
 17 18  1  0
 18 19  2  0
 19 20  1  0
 20 21  1  0
  7 22  2  0
 22 23  1  0
 23  3  1  0
 21 13  1  0
 20 16  2  0
M  END
>  <inchikey>  (328) 
GXHZAXZJOXPMAA-UHFFFAOYSA-N

>  <alias>  (328) 
CCc1nc(=N)c(CNC(=O)CN2CCc3sccc3C2)c[nH]1

>  <tags>  (328) 
{'openbind_xx01zvns2b_c1_knitwork_pure', 'fragmenstein_placed'}

>  <HIPPO Pose ID>  (328) 
47445

>  <ref_pdb>  (328) 
41

>  <smiles>  (328) 
C117797-P35

>  <fragmenstein_runtime>  (328) 
4.579484

>  <fragmenstein_outcome>  (328) 
acceptable

>  <fragmenstein_mode>  (328) 
expansion

>  <fragmenstein_error>  (328) 


>  <HIPPO Compound ID>  (328) 
1737

>  <Energy>  (328) 
15.226557

>  <scratch_subdir>  (328) 
/opt/xchem-fragalysis-2/maxwin/BulkDock/SCRATCH/511031/C117797-P35

$$$$
Cc1cnc(CNC(=O)CN2CCc3sccc3C2)s1
     RDKit          3D

 20 22  0  0  0  0  0  0  0  0999 V2000
   -6.5978    2.1335  -12.5510 C   0  0  0  0  0  0  0  0  0  0  0  0
   -5.2246    2.5027  -12.9671 C   0  0  0  0  0  0  0  0  0  0  0  0
   -4.0105    1.8973  -12.7229 C   0  0  0  0  0  0  0  0  0  0  0  0
   -2.8963    2.5165  -13.2740 N   0  0  0  0  0  0  0  0  0  0  0  0
   -3.2745    3.6037  -13.9153 C   0  0  0  0  0  0  0  0  0  0  0  0
   -2.3688    4.5635  -14.6299 C   0  0  0  0  0  0  0  0  0  0  0  0
   -2.9179    4.8939  -15.9195 N   0  0  0  0  0  0  0  0  0  0  0  0
   -2.3975    5.8489  -17.0168 C   0  0  0  0  0  0  0  0  0  0  0  0
   -1.4051    6.4576  -17.0802 O   0  0  0  0  0  0  0  0  0  0  0  0
   -3.5162    5.9049  -18.0944 C   0  0  0  0  0  0  0  0  0  0  0  0
   -4.8411    5.6562  -17.4815 N   0  0  0  0  0  0  0  0  0  0  0  0
   -5.2978    6.8036  -16.6556 C   0  0  0  0  0  0  0  0  0  0  0  0
   -6.5223    6.4373  -15.7881 C   0  0  0  0  0  0  0  0  0  0  0  0
   -7.4235    5.5262  -16.5447 C   0  0  0  0  0  0  0  0  0  0  0  0
   -8.8675    4.9156  -15.9063 S   0  0  0  0  0  0  0  0  0  0  0  0
   -9.3158    4.2831  -17.4343 C   0  0  0  0  0  0  0  0  0  0  0  0
   -8.2936    4.3854  -18.3526 C   0  0  0  0  0  0  0  0  0  0  0  0
   -7.1576    5.0630  -17.8182 C   0  0  0  0  0  0  0  0  0  0  0  0
   -5.8576    5.3401  -18.5158 C   0  0  0  0  0  0  0  0  0  0  0  0
   -4.9681    3.9049  -13.8806 S   0  0  0  0  0  0  0  0  0  0  0  0
  1  2  1  0
  2  3  2  0
  3  4  1  0
  4  5  2  0
  5  6  1  0
  6  7  1  0
  7  8  1  0
  8  9  2  0
  8 10  1  0
 10 11  1  0
 11 12  1  0
 12 13  1  0
 13 14  1  0
 14 15  1  0
 15 16  1  0
 16 17  2  0
 17 18  1  0
 18 19  1  0
  5 20  1  0
 20  2  1  0
 19 11  1  0
 18 14  2  0
M  END
>  <inchikey>  (329) 
OTFBVYFAERSVFS-UHFFFAOYSA-N

>  <alias>  (329) 
Cc1cnc(CNC(=O)CN2CCc3sccc3C2)s1

>  <tags>  (329) 
{'openbind_xx01zvns2b_c1_knitwork_pure', 'fragmenstein_placed'}

>  <HIPPO Pose ID>  (329) 
47472

>  <ref_pdb>  (329) 
41

>  <smiles>  (329) 
C117817-P35

>  <fragmenstein_runtime>  (329) 
4.018978

>  <fragmenstein_outcome>  (329) 
acceptable

>  <fragmenstein_mode>  (329) 
expansion

>  <fragmenstein_error>  (329) 


>  <HIPPO Compound ID>  (329) 
115821

>  <Energy>  (329) 
73.628498

>  <scratch_subdir>  (329) 
/opt/xchem-fragalysis-2/maxwin/BulkDock/SCRATCH/511031/C117817-P35

$$$$
Cc1csc(CNC(=O)CN2CCc3sccc3C2)n1
     RDKit          3D

 20 22  0  0  0  0  0  0  0  0999 V2000
   -6.8958    2.6003  -13.1653 C   0  0  0  0  0  0  0  0  0  0  0  0
   -5.4145    2.6733  -13.1295 C   0  0  0  0  0  0  0  0  0  0  0  0
   -4.5692    1.9040  -12.3565 C   0  0  0  0  0  0  0  0  0  0  0  0
   -2.9367    2.3437  -12.6285 S   0  0  0  0  0  0  0  0  0  0  0  0
   -3.4635    3.5359  -13.7441 C   0  0  0  0  0  0  0  0  0  0  0  0
   -2.4738    4.4268  -14.4278 C   0  0  0  0  0  0  0  0  0  0  0  0
   -2.9939    4.7762  -15.7183 N   0  0  0  0  0  0  0  0  0  0  0  0
   -2.4202    5.7019  -16.8146 C   0  0  0  0  0  0  0  0  0  0  0  0
   -1.3993    6.2637  -16.8717 O   0  0  0  0  0  0  0  0  0  0  0  0
   -3.5172    5.8188  -17.9104 C   0  0  0  0  0  0  0  0  0  0  0  0
   -4.8542    5.5415  -17.3526 N   0  0  0  0  0  0  0  0  0  0  0  0
   -5.3318    6.6114  -16.4411 C   0  0  0  0  0  0  0  0  0  0  0  0
   -6.5148    6.1020  -15.5903 C   0  0  0  0  0  0  0  0  0  0  0  0
   -7.4549    5.3516  -16.4686 C   0  0  0  0  0  0  0  0  0  0  0  0
   -8.9590    4.7982  -15.9363 S   0  0  0  0  0  0  0  0  0  0  0  0
   -9.3752    4.2815  -17.5143 C   0  0  0  0  0  0  0  0  0  0  0  0
   -8.3200    4.4087  -18.3912 C   0  0  0  0  0  0  0  0  0  0  0  0
   -7.1771    5.0021  -17.7759 C   0  0  0  0  0  0  0  0  0  0  0  0
   -5.8507    5.2910  -18.4207 C   0  0  0  0  0  0  0  0  0  0  0  0
   -4.7697    3.5988  -13.9292 N   0  0  0  0  0  0  0  0  0  0  0  0
  1  2  1  0
  2  3  2  0
  3  4  1  0
  4  5  1  0
  5  6  1  0
  6  7  1  0
  7  8  1  0
  8  9  2  0
  8 10  1  0
 10 11  1  0
 11 12  1  0
 12 13  1  0
 13 14  1  0
 14 15  1  0
 15 16  1  0
 16 17  2  0
 17 18  1  0
 18 19  1  0
  5 20  2  0
 20  2  1  0
 19 11  1  0
 18 14  2  0
M  END
>  <inchikey>  (330) 
QPLBMEUDUYHHLJ-UHFFFAOYSA-N

>  <alias>  (330) 
Cc1csc(CNC(=O)CN2CCc3sccc3C2)n1

>  <tags>  (330) 
{'openbind_xx01zvns2b_c1_knitwork_pure', 'fragmenstein_placed'}

>  <HIPPO Pose ID>  (330) 
47473

>  <ref_pdb>  (330) 
41

>  <smiles>  (330) 
C117818-P35

>  <fragmenstein_runtime>  (330) 
3.627978

>  <fragmenstein_outcome>  (330) 
acceptable

>  <fragmenstein_mode>  (330) 
expansion

>  <fragmenstein_error>  (330) 


>  <HIPPO Compound ID>  (330) 
5850

>  <Energy>  (330) 
67.74566

>  <scratch_subdir>  (330) 
/opt/xchem-fragalysis-2/maxwin/BulkDock/SCRATCH/511031/C117818-P35

$$$$
On1ccnc1-c1nnc(C2CCNCC2)o1
     RDKit          3D

 17 19  0  0  0  0  0  0  0  0999 V2000
   -5.7831    4.6583  -15.6123 O   0  0  0  0  0  0  0  0  0  0  0  0
   -7.0088    4.5776  -16.2695 N   0  0  0  0  0  0  0  0  0  0  0  0
   -8.1583    4.1622  -15.6759 C   0  0  0  0  0  0  0  0  0  0  0  0
   -9.1263    4.3533  -16.6327 C   0  0  0  0  0  0  0  0  0  0  0  0
   -8.5909    4.9093  -17.7654 N   0  0  0  0  0  0  0  0  0  0  0  0
   -7.2979    5.0379  -17.5257 C   0  0  0  0  0  0  0  0  0  0  0  0
   -6.3204    5.6684  -18.3487 C   0  0  0  0  0  0  0  0  0  0  0  0
   -6.4104    6.9122  -18.7984 N   0  0  0  0  0  0  0  0  0  0  0  0
   -5.1990    7.2234  -19.3832 N   0  0  0  0  0  0  0  0  0  0  0  0
   -4.4477    6.1531  -19.2449 C   0  0  0  0  0  0  0  0  0  0  0  0
   -3.0256    5.9310  -19.6116 C   0  0  0  0  0  0  0  0  0  0  0  0
   -2.1609    5.9239  -18.3385 C   0  0  0  0  0  0  0  0  0  0  0  0
   -0.7160    6.2880  -18.6491 C   0  0  0  0  0  0  0  0  0  0  0  0
   -0.5670    7.6051  -19.2656 N   0  0  0  0  0  0  0  0  0  0  0  0
   -1.7645    8.0921  -19.9546 C   0  0  0  0  0  0  0  0  0  0  0  0
   -2.5202    6.9583  -20.6375 C   0  0  0  0  0  0  0  0  0  0  0  0
   -5.0681    5.1421  -18.5720 O   0  0  0  0  0  0  0  0  0  0  0  0
  1  2  1  0
  2  3  1  0
  3  4  2  0
  4  5  1  0
  5  6  2  0
  6  7  1  0
  7  8  2  0
  8  9  1  0
  9 10  2  0
 10 11  1  0
 11 12  1  0
 12 13  1  0
 13 14  1  0
 14 15  1  0
 15 16  1  0
 10 17  1  0
  6  2  1  0
 17  7  1  0
 16 11  1  0
M  END
>  <inchikey>  (331) 
IKGWEUPIBZYKCX-UHFFFAOYSA-N

>  <alias>  (331) 
On1ccnc1-c1nnc(C2CCNCC2)o1

>  <tags>  (331) 
{'openbind_xx01zvns2b_c1_knitwork_pure', 'fragmenstein_placed'}

>  <HIPPO Pose ID>  (331) 
47513

>  <ref_pdb>  (331) 
41

>  <smiles>  (331) 
C14404-P56

>  <fragmenstein_runtime>  (331) 
1.622887

>  <fragmenstein_outcome>  (331) 
acceptable

>  <fragmenstein_mode>  (331) 
expansion

>  <fragmenstein_error>  (331) 


>  <HIPPO Compound ID>  (331) 
51739

>  <Energy>  (331) 
20.606351

>  <scratch_subdir>  (331) 
/opt/xchem-fragalysis-2/maxwin/BulkDock/SCRATCH/511031/C14404-P56

$$$$
O=c1[nH]c2ccccc2n1[C@H]1CCCNC1
     RDKit          3D

 16 18  0  0  0  0  0  0  0  0999 V2000
   -3.5773    5.9231  -16.8577 O   0  0  0  0  0  0  0  0  0  0  0  0
   -4.7554    5.6302  -16.7625 C   0  0  0  0  0  0  0  0  0  0  0  0
   -5.3763    5.1897  -15.5870 N   0  0  0  0  0  0  0  0  0  0  0  0
   -6.6816    4.8252  -15.8802 C   0  0  0  0  0  0  0  0  0  0  0  0
   -7.6560    4.3417  -15.0454 C   0  0  0  0  0  0  0  0  0  0  0  0
   -8.8803    4.0318  -15.6363 C   0  0  0  0  0  0  0  0  0  0  0  0
   -9.0771    4.1355  -17.0240 C   0  0  0  0  0  0  0  0  0  0  0  0
   -8.0674    4.6364  -17.8454 C   0  0  0  0  0  0  0  0  0  0  0  0
   -6.8934    5.0280  -17.2395 C   0  0  0  0  0  0  0  0  0  0  0  0
   -5.7468    5.6604  -17.7563 N   0  0  0  0  0  0  0  0  0  0  0  0
   -5.6921    6.2459  -19.0850 C   0  0  1  0  0  0  0  0  0  0  0  0
   -4.9866    7.6079  -19.1861 C   0  0  0  0  0  0  0  0  0  0  0  0
   -3.4811    7.5345  -19.4411 C   0  0  0  0  0  0  0  0  0  0  0  0
   -3.0857    6.4559  -20.4407 C   0  0  0  0  0  0  0  0  0  0  0  0
   -3.6729    5.1475  -20.1390 N   0  0  0  0  0  0  0  0  0  0  0  0
   -5.1432    5.2753  -20.1203 C   0  0  0  0  0  0  0  0  0  0  0  0
  1  2  2  0
  2  3  1  0
  3  4  1  0
  4  5  2  0
  5  6  1  0
  6  7  2  0
  7  8  1  0
  8  9  2  0
  9 10  1  0
 11 10  1  1
 11 12  1  0
 12 13  1  0
 13 14  1  0
 14 15  1  0
 15 16  1  0
 10  2  1  0
 16 11  1  0
  9  4  1  0
M  END
>  <inchikey>  (332) 
AFNIUWXIUSIANQ-UHFFFAOYSA-N

>  <alias>  (332) 
O=c1[nH]c2ccccc2n1[C@H]1CCCNC1

>  <tags>  (332) 
{'openbind_xx01zvns2b_c1_knitwork_pure', 'fragmenstein_placed'}

>  <HIPPO Pose ID>  (332) 
47614

>  <ref_pdb>  (332) 
41

>  <smiles>  (332) 
C7807-P155

>  <fragmenstein_runtime>  (332) 
1.1503

>  <fragmenstein_outcome>  (332) 
acceptable

>  <fragmenstein_mode>  (332) 
expansion

>  <fragmenstein_error>  (332) 


>  <HIPPO Compound ID>  (332) 
15684

>  <Energy>  (332) 
6.298755

>  <scratch_subdir>  (332) 
/opt/xchem-fragalysis-2/maxwin/BulkDock/SCRATCH/511031/C7807-P155

$$$$
c1ccc2nc(SCc3nc4ccccc4[nH]3)ccc2c1
     RDKit          3D

 21 24  0  0  0  0  0  0  0  0999 V2000
   -3.9046    6.0650  -18.8051 C   0  0  0  0  0  0  0  0  0  0  0  0
   -4.7433    5.4061  -19.6901 C   0  0  0  0  0  0  0  0  0  0  0  0
   -5.1797    6.0536  -20.8561 C   0  0  0  0  0  0  0  0  0  0  0  0
   -4.8225    7.3634  -21.1784 C   0  0  0  0  0  0  0  0  0  0  0  0
   -5.2977    7.9900  -22.2915 N   0  0  0  0  0  0  0  0  0  0  0  0
   -4.9137    9.2641  -22.5306 C   0  0  0  0  0  0  0  0  0  0  0  0
   -5.6681   10.1666  -23.8732 S   0  0  0  0  0  0  0  0  0  0  0  0
   -5.2547    9.0912  -25.2789 C   0  0  0  0  0  0  0  0  0  0  0  0
   -6.4374    8.7611  -26.1274 C   0  0  0  0  0  0  0  0  0  0  0  0
   -6.5759    7.6624  -26.8396 N   0  0  0  0  0  0  0  0  0  0  0  0
   -7.8480    7.6980  -27.3466 C   0  0  0  0  0  0  0  0  0  0  0  0
   -8.5356    6.7362  -28.0964 C   0  0  0  0  0  0  0  0  0  0  0  0
   -9.8570    6.9988  -28.4682 C   0  0  0  0  0  0  0  0  0  0  0  0
  -10.4823    8.1881  -28.0886 C   0  0  0  0  0  0  0  0  0  0  0  0
   -9.8095    9.1661  -27.3444 C   0  0  0  0  0  0  0  0  0  0  0  0
   -8.4857    8.8840  -27.0002 C   0  0  0  0  0  0  0  0  0  0  0  0
   -7.5403    9.5704  -26.2810 N   0  0  0  0  0  0  0  0  0  0  0  0
   -4.0551    9.9577  -21.6953 C   0  0  0  0  0  0  0  0  0  0  0  0
   -3.5678    9.3186  -20.5626 C   0  0  0  0  0  0  0  0  0  0  0  0
   -3.9564    8.0089  -20.2749 C   0  0  0  0  0  0  0  0  0  0  0  0
   -3.5031    7.3639  -19.1045 C   0  0  0  0  0  0  0  0  0  0  0  0
  1  2  2  0
  2  3  1  0
  3  4  2  0
  4  5  1  0
  5  6  2  0
  6  7  1  0
  7  8  1  0
  8  9  1  0
  9 10  2  0
 10 11  1  0
 11 12  2  0
 12 13  1  0
 13 14  2  0
 14 15  1  0
 15 16  2  0
 16 17  1  0
  6 18  1  0
 18 19  2  0
 19 20  1  0
 20 21  2  0
 21  1  1  0
 20  4  1  0
 17  9  1  0
 16 11  1  0
M  END
>  <inchikey>  (333) 
IHNJVDJKGZXRCB-UHFFFAOYSA-N

>  <alias>  (333) 
c1ccc2nc(SCc3nc4ccccc4[nH]3)ccc2c1

>  <tags>  (333) 
{'openbind_xx01zvns2b_c1_knitwork_pure', 'fragmenstein_placed'}

>  <HIPPO Pose ID>  (333) 
47946

>  <ref_pdb>  (333) 
41

>  <smiles>  (333) 
C15421-P50

>  <fragmenstein_runtime>  (333) 
9.643184

>  <fragmenstein_outcome>  (333) 
acceptable

>  <fragmenstein_mode>  (333) 
expansion

>  <fragmenstein_error>  (333) 


>  <HIPPO Compound ID>  (333) 
4139

>  <Energy>  (333) 
35.602719

>  <scratch_subdir>  (333) 
/opt/xchem-fragalysis-2/maxwin/BulkDock/SCRATCH/511031/C15421-P50

$$$$
CCCn1c(NS(=O)(=O)c2cccc3ncccc23)nc2ccccc21
     RDKit          3D

 26 29  0  0  0  0  0  0  0  0999 V2000
  -10.3127    9.3540  -11.3010 C   0  0  0  0  0  0  0  0  0  0  0  0
   -9.5046    8.2819  -10.5779 C   0  0  0  0  0  0  0  0  0  0  0  0
   -8.8645    7.2721  -11.5456 C   0  0  0  0  0  0  0  0  0  0  0  0
   -8.6077    5.9136  -11.0674 N   0  0  0  0  0  0  0  0  0  0  0  0
   -8.6203    4.7777  -11.8605 C   0  0  0  0  0  0  0  0  0  0  0  0
   -8.8102    4.6350  -13.3040 N   0  0  0  0  0  0  0  0  0  0  0  0
   -7.5284    5.3330  -14.1581 S   0  0  0  0  0  0  0  0  0  0  0  0
   -6.2983    4.7779  -13.6441 O   0  0  0  0  0  0  0  0  0  0  0  0
   -7.7318    6.7686  -14.1891 O   0  0  0  0  0  0  0  0  0  0  0  0
   -7.7220    4.8145  -15.8399 C   0  0  0  0  0  0  0  0  0  0  0  0
   -8.9855    4.3960  -16.2653 C   0  0  0  0  0  0  0  0  0  0  0  0
   -9.2034    4.1359  -17.6069 C   0  0  0  0  0  0  0  0  0  0  0  0
   -8.1519    4.2729  -18.5087 C   0  0  0  0  0  0  0  0  0  0  0  0
   -6.8797    4.6629  -18.1135 C   0  0  0  0  0  0  0  0  0  0  0  0
   -5.9313    4.7599  -19.0597 N   0  0  0  0  0  0  0  0  0  0  0  0
   -4.6950    5.1534  -18.7111 C   0  0  0  0  0  0  0  0  0  0  0  0
   -4.3437    5.4812  -17.4235 C   0  0  0  0  0  0  0  0  0  0  0  0
   -5.3248    5.3884  -16.4433 C   0  0  0  0  0  0  0  0  0  0  0  0
   -6.6393    4.9555  -16.7557 C   0  0  0  0  0  0  0  0  0  0  0  0
   -8.5278    3.6795  -11.1585 N   0  0  0  0  0  0  0  0  0  0  0  0
   -8.3658    4.0897   -9.8673 C   0  0  0  0  0  0  0  0  0  0  0  0
   -8.2158    3.3107   -8.7117 C   0  0  0  0  0  0  0  0  0  0  0  0
   -8.0520    3.9522   -7.4808 C   0  0  0  0  0  0  0  0  0  0  0  0
   -8.0159    5.3423   -7.4044 C   0  0  0  0  0  0  0  0  0  0  0  0
   -8.1619    6.1353   -8.5493 C   0  0  0  0  0  0  0  0  0  0  0  0
   -8.3587    5.4848   -9.7760 C   0  0  0  0  0  0  0  0  0  0  0  0
  1  2  1  0
  2  3  1  0
  3  4  1  0
  4  5  1  0
  5  6  1  0
  6  7  1  0
  7  8  2  0
  7  9  2  0
  7 10  1  0
 10 11  2  0
 11 12  1  0
 12 13  2  0
 13 14  1  0
 14 15  2  0
 15 16  1  0
 16 17  2  0
 17 18  1  0
 18 19  2  0
  5 20  2  0
 20 21  1  0
 21 22  2  0
 22 23  1  0
 23 24  2  0
 24 25  1  0
 25 26  2  0
 26  4  1  0
 19 10  1  0
 26 21  1  0
 19 14  1  0
M  END
>  <inchikey>  (334) 
JXAWXYJOTGIDJX-UHFFFAOYSA-N

>  <alias>  (334) 
CCCn1c(NS(=O)(=O)c2cccc3ncccc23)nc2ccccc21

>  <tags>  (334) 
{'openbind_xx01zvns2b_c1_knitwork_pure', 'fragmenstein_placed'}

>  <HIPPO Pose ID>  (334) 
48001

>  <ref_pdb>  (334) 
41

>  <smiles>  (334) 
C54608-P49

>  <fragmenstein_runtime>  (334) 
190.264854

>  <fragmenstein_outcome>  (334) 
acceptable

>  <fragmenstein_mode>  (334) 
expansion

>  <fragmenstein_error>  (334) 


>  <HIPPO Compound ID>  (334) 
10191

>  <Energy>  (334) 
-30.267563

>  <scratch_subdir>  (334) 
/opt/xchem-fragalysis-2/maxwin/BulkDock/SCRATCH/511031/C54608-P49

$$$$
CC(C)(Nc1nc2cccc(F)c2s1)c1ncc[nH]1
     RDKit          3D

 19 21  0  0  0  0  0  0  0  0999 V2000
   -2.0112    4.2620  -19.0229 C   0  0  0  0  0  0  0  0  0  0  0  0
   -2.6123    5.5816  -19.5225 C   0  0  0  0  0  0  0  0  0  0  0  0
   -2.3270    6.7396  -18.5508 C   0  0  0  0  0  0  0  0  0  0  0  0
   -4.0484    5.4260  -19.7412 N   0  0  0  0  0  0  0  0  0  0  0  0
   -5.0554    5.1260  -18.8911 C   0  0  0  0  0  0  0  0  0  0  0  0
   -6.2401    4.8451  -19.3755 N   0  0  0  0  0  0  0  0  0  0  0  0
   -7.1653    4.6174  -18.3798 C   0  0  0  0  0  0  0  0  0  0  0  0
   -8.5315    4.3118  -18.5617 C   0  0  0  0  0  0  0  0  0  0  0  0
   -9.3592    4.1211  -17.4523 C   0  0  0  0  0  0  0  0  0  0  0  0
   -8.8324    4.2203  -16.1704 C   0  0  0  0  0  0  0  0  0  0  0  0
   -7.4848    4.5142  -15.9777 C   0  0  0  0  0  0  0  0  0  0  0  0
   -7.0092    4.6108  -14.7289 F   0  0  0  0  0  0  0  0  0  0  0  0
   -6.6602    4.7170  -17.0877 C   0  0  0  0  0  0  0  0  0  0  0  0
   -4.9905    5.0980  -17.1747 S   0  0  0  0  0  0  0  0  0  0  0  0
   -1.9056    5.9347  -20.8430 C   0  0  0  0  0  0  0  0  0  0  0  0
   -2.4910    6.1809  -22.0040 N   0  0  0  0  0  0  0  0  0  0  0  0
   -1.4852    6.5354  -22.8707 C   0  0  0  0  0  0  0  0  0  0  0  0
   -0.2630    6.4088  -22.2636 C   0  0  0  0  0  0  0  0  0  0  0  0
   -0.5355    5.9937  -20.9897 N   0  0  0  0  0  0  0  0  0  0  0  0
  1  2  1  0
  2  3  1  0
  2  4  1  0
  4  5  1  0
  5  6  2  0
  6  7  1  0
  7  8  2  0
  8  9  1  0
  9 10  2  0
 10 11  1  0
 11 12  1  0
 11 13  2  0
 13 14  1  0
  2 15  1  0
 15 16  2  0
 16 17  1  0
 17 18  2  0
 18 19  1  0
 14  5  1  0
 19 15  1  0
 13  7  1  0
M  END
>  <inchikey>  (335) 
KHPFPLUPUADDBU-UHFFFAOYSA-N

>  <alias>  (335) 
CC(C)(Nc1nc2cccc(F)c2s1)c1ncc[nH]1

>  <tags>  (335) 
{'openbind_xx01zvns2b_c1_knitwork_pure', 'fragmenstein_placed'}

>  <HIPPO Pose ID>  (335) 
48068

>  <ref_pdb>  (335) 
41

>  <smiles>  (335) 
C48739-P7

>  <fragmenstein_runtime>  (335) 
3.272909

>  <fragmenstein_outcome>  (335) 
acceptable

>  <fragmenstein_mode>  (335) 
expansion

>  <fragmenstein_error>  (335) 


>  <HIPPO Compound ID>  (335) 
5187

>  <Energy>  (335) 
0.031577

>  <scratch_subdir>  (335) 
/opt/xchem-fragalysis-2/maxwin/BulkDock/SCRATCH/511031/C48739-P7

$$$$
O=C(NCCc1ncc[nH]1)c1[nH]c2ccccc2c1Cl
     RDKit          3D

 20 22  0  0  0  0  0  0  0  0999 V2000
   -4.0904    8.7344  -14.3452 O   0  0  0  0  0  0  0  0  0  0  0  0
   -4.6582    7.7284  -14.2134 C   0  0  0  0  0  0  0  0  0  0  0  0
   -5.0961    6.9942  -12.9420 N   0  0  0  0  0  0  0  0  0  0  0  0
   -5.0138    7.3855  -11.5630 C   0  0  0  0  0  0  0  0  0  0  0  0
   -6.4492    7.4800  -10.9922 C   0  0  0  0  0  0  0  0  0  0  0  0
   -7.2960    6.3282  -11.4704 C   0  0  0  0  0  0  0  0  0  0  0  0
   -7.7559    6.1651  -12.7024 N   0  0  0  0  0  0  0  0  0  0  0  0
   -8.2682    4.8931  -12.7424 C   0  0  0  0  0  0  0  0  0  0  0  0
   -8.1552    4.2918  -11.5160 C   0  0  0  0  0  0  0  0  0  0  0  0
   -7.5680    5.2214  -10.7061 N   0  0  0  0  0  0  0  0  0  0  0  0
   -5.1879    6.9629  -15.3275 C   0  0  0  0  0  0  0  0  0  0  0  0
   -6.4676    6.4404  -15.2895 N   0  0  0  0  0  0  0  0  0  0  0  0
   -6.7687    5.7662  -16.4392 C   0  0  0  0  0  0  0  0  0  0  0  0
   -7.9326    5.0748  -16.7881 C   0  0  0  0  0  0  0  0  0  0  0  0
   -7.9853    4.5203  -18.0635 C   0  0  0  0  0  0  0  0  0  0  0  0
   -6.9022    4.6291  -18.9306 C   0  0  0  0  0  0  0  0  0  0  0  0
   -5.7369    5.3063  -18.5564 C   0  0  0  0  0  0  0  0  0  0  0  0
   -5.6658    5.8959  -17.2807 C   0  0  0  0  0  0  0  0  0  0  0  0
   -4.6803    6.6505  -16.5713 C   0  0  0  0  0  0  0  0  0  0  0  0
   -3.1407    7.0357  -17.1849 Cl  0  0  0  0  0  0  0  0  0  0  0  0
  1  2  2  0
  2  3  1  0
  3  4  1  0
  4  5  1  0
  5  6  1  0
  6  7  2  0
  7  8  1  0
  8  9  2  0
  9 10  1  0
  2 11  1  0
 11 12  1  0
 12 13  1  0
 13 14  2  0
 14 15  1  0
 15 16  2  0
 16 17  1  0
 17 18  2  0
 18 19  1  0
 19 20  1  0
 10  6  1  0
 19 11  2  0
 18 13  1  0
M  END
>  <inchikey>  (336) 
ACEDQNPCSWVHFI-UHFFFAOYSA-N

>  <alias>  (336) 
O=C(NCCc1ncc[nH]1)c1[nH]c2ccccc2c1Cl

>  <tags>  (336) 
{'openbind_xx01zvns2b_c1_knitwork_pure', 'fragmenstein_placed'}

>  <HIPPO Pose ID>  (336) 
48163

>  <ref_pdb>  (336) 
41

>  <smiles>  (336) 
C51356-P5

>  <fragmenstein_runtime>  (336) 
1.969666

>  <fragmenstein_outcome>  (336) 
acceptable

>  <fragmenstein_mode>  (336) 
expansion

>  <fragmenstein_error>  (336) 


>  <HIPPO Compound ID>  (336) 
7475

>  <Energy>  (336) 
-0.132218

>  <scratch_subdir>  (336) 
/opt/xchem-fragalysis-2/maxwin/BulkDock/SCRATCH/511031/C51356-P5

$$$$
O=C(NCCc1ncc[nH]1)c1[nH]c2ccccc2c1Br
     RDKit          3D

 20 22  0  0  0  0  0  0  0  0999 V2000
   -4.1054    8.7353  -14.3399 O   0  0  0  0  0  0  0  0  0  0  0  0
   -4.6742    7.7299  -14.2074 C   0  0  0  0  0  0  0  0  0  0  0  0
   -5.1111    6.9962  -12.9358 N   0  0  0  0  0  0  0  0  0  0  0  0
   -5.0265    7.3871  -11.5571 C   0  0  0  0  0  0  0  0  0  0  0  0
   -6.4607    7.4783  -10.9831 C   0  0  0  0  0  0  0  0  0  0  0  0
   -7.3056    6.3249  -11.4603 C   0  0  0  0  0  0  0  0  0  0  0  0
   -7.7699    6.1634  -12.6909 N   0  0  0  0  0  0  0  0  0  0  0  0
   -8.2741    4.8883  -12.7334 C   0  0  0  0  0  0  0  0  0  0  0  0
   -8.1533    4.2838  -11.5094 C   0  0  0  0  0  0  0  0  0  0  0  0
   -7.5687    5.2143  -10.6986 N   0  0  0  0  0  0  0  0  0  0  0  0
   -5.2069    6.9639  -15.3205 C   0  0  0  0  0  0  0  0  0  0  0  0
   -6.4877    6.4420  -15.2822 N   0  0  0  0  0  0  0  0  0  0  0  0
   -6.7896    5.7641  -16.4314 C   0  0  0  0  0  0  0  0  0  0  0  0
   -7.9545    5.0721  -16.7761 C   0  0  0  0  0  0  0  0  0  0  0  0
   -8.0109    4.5138  -18.0497 C   0  0  0  0  0  0  0  0  0  0  0  0
   -6.9298    4.6192  -18.9194 C   0  0  0  0  0  0  0  0  0  0  0  0
   -5.7627    5.2960  -18.5499 C   0  0  0  0  0  0  0  0  0  0  0  0
   -5.6881    5.8894  -17.2764 C   0  0  0  0  0  0  0  0  0  0  0  0
   -4.7124    6.6417  -16.5636 C   0  0  0  0  0  0  0  0  0  0  0  0
   -3.0130    7.0499  -17.2473 Br  0  0  0  0  0  0  0  0  0  0  0  0
  1  2  2  0
  2  3  1  0
  3  4  1  0
  4  5  1  0
  5  6  1  0
  6  7  2  0
  7  8  1  0
  8  9  2  0
  9 10  1  0
  2 11  1  0
 11 12  1  0
 12 13  1  0
 13 14  2  0
 14 15  1  0
 15 16  2  0
 16 17  1  0
 17 18  2  0
 18 19  1  0
 19 20  1  0
 10  6  1  0
 19 11  2  0
 18 13  1  0
M  END
>  <inchikey>  (337) 
PPKMWKRMHCXNFG-UHFFFAOYSA-N

>  <alias>  (337) 
O=C(NCCc1ncc[nH]1)c1[nH]c2ccccc2c1Br

>  <tags>  (337) 
{'openbind_xx01zvns2b_c1_knitwork_pure', 'fragmenstein_placed'}

>  <HIPPO Pose ID>  (337) 
48164

>  <ref_pdb>  (337) 
41

>  <smiles>  (337) 
C51357-P5

>  <fragmenstein_runtime>  (337) 
1.399115

>  <fragmenstein_outcome>  (337) 
acceptable

>  <fragmenstein_mode>  (337) 
expansion

>  <fragmenstein_error>  (337) 


>  <HIPPO Compound ID>  (337) 
3291

>  <Energy>  (337) 
1.249059

>  <scratch_subdir>  (337) 
/opt/xchem-fragalysis-2/maxwin/BulkDock/SCRATCH/511031/C51357-P5

$$$$
COc1ccc2cc(C(=O)NCCc3ncc[nH]3)[nH]c2c1
     RDKit          3D

 21 23  0  0  0  0  0  0  0  0999 V2000
  -10.7276    4.6233  -18.0216 C   0  0  0  0  0  0  0  0  0  0  0  0
   -9.9569    3.8685  -17.0891 O   0  0  0  0  0  0  0  0  0  0  0  0
   -8.7443    4.4348  -16.8432 C   0  0  0  0  0  0  0  0  0  0  0  0
   -8.3920    4.7004  -15.5218 C   0  0  0  0  0  0  0  0  0  0  0  0
   -7.1556    5.2865  -15.2147 C   0  0  0  0  0  0  0  0  0  0  0  0
   -6.2727    5.5952  -16.2675 C   0  0  0  0  0  0  0  0  0  0  0  0
   -4.9956    6.2278  -16.3699 C   0  0  0  0  0  0  0  0  0  0  0  0
   -4.6924    6.3473  -17.7144 C   0  0  0  0  0  0  0  0  0  0  0  0
   -3.6296    7.0392  -18.4077 C   0  0  0  0  0  0  0  0  0  0  0  0
   -2.5092    6.9445  -18.1107 O   0  0  0  0  0  0  0  0  0  0  0  0
   -4.2885    7.7693  -19.5874 N   0  0  0  0  0  0  0  0  0  0  0  0
   -3.7033    8.4567  -20.7027 C   0  0  0  0  0  0  0  0  0  0  0  0
   -3.5533    7.4530  -21.8376 C   0  0  0  0  0  0  0  0  0  0  0  0
   -3.4823    8.1071  -23.1630 C   0  0  0  0  0  0  0  0  0  0  0  0
   -4.5057    8.5493  -23.8630 N   0  0  0  0  0  0  0  0  0  0  0  0
   -3.9790    8.9902  -25.0464 C   0  0  0  0  0  0  0  0  0  0  0  0
   -2.6138    8.8392  -25.0555 C   0  0  0  0  0  0  0  0  0  0  0  0
   -2.3068    8.2846  -23.8454 N   0  0  0  0  0  0  0  0  0  0  0  0
   -5.6314    5.6064  -18.3950 N   0  0  0  0  0  0  0  0  0  0  0  0
   -6.6526    5.2598  -17.5623 C   0  0  0  0  0  0  0  0  0  0  0  0
   -7.8632    4.6677  -17.8888 C   0  0  0  0  0  0  0  0  0  0  0  0
  1  2  1  0
  2  3  1  0
  3  4  2  0
  4  5  1  0
  5  6  2  0
  6  7  1  0
  7  8  2  0
  8  9  1  0
  9 10  2  0
  9 11  1  0
 11 12  1  0
 12 13  1  0
 13 14  1  0
 14 15  2  0
 15 16  1  0
 16 17  2  0
 17 18  1  0
  8 19  1  0
 19 20  1  0
 20 21  2  0
 21  3  1  0
 20  6  1  0
 18 14  1  0
M  END
>  <inchikey>  (338) 
AOOQBDNCKQBUCV-UHFFFAOYSA-N

>  <alias>  (338) 
COc1ccc2cc(C(=O)NCCc3ncc[nH]3)[nH]c2c1

>  <tags>  (338) 
{'openbind_xx01zvns2b_c1_knitwork_pure', 'fragmenstein_placed'}

>  <HIPPO Pose ID>  (338) 
48169

>  <ref_pdb>  (338) 
41

>  <smiles>  (338) 
C51363-P5

>  <fragmenstein_runtime>  (338) 
4.928029

>  <fragmenstein_outcome>  (338) 
acceptable

>  <fragmenstein_mode>  (338) 
expansion

>  <fragmenstein_error>  (338) 


>  <HIPPO Compound ID>  (338) 
55804

>  <Energy>  (338) 
13.167257

>  <scratch_subdir>  (338) 
/opt/xchem-fragalysis-2/maxwin/BulkDock/SCRATCH/511031/C51363-P5

$$$$
O=C(NCCc1c[nH]cn1)c1cc2c(Cl)cccc2[nH]1
     RDKit          3D

 20 22  0  0  0  0  0  0  0  0999 V2000
   -2.8695    6.5039  -18.1933 O   0  0  0  0  0  0  0  0  0  0  0  0
   -3.9637    6.7120  -18.5274 C   0  0  0  0  0  0  0  0  0  0  0  0
   -4.5050    7.5276  -19.7101 N   0  0  0  0  0  0  0  0  0  0  0  0
   -3.8176    8.3382  -20.6780 C   0  0  0  0  0  0  0  0  0  0  0  0
   -3.1488    7.4469  -21.7153 C   0  0  0  0  0  0  0  0  0  0  0  0
   -3.4945    7.8289  -23.1061 C   0  0  0  0  0  0  0  0  0  0  0  0
   -4.6276    7.5371  -23.8348 C   0  0  0  0  0  0  0  0  0  0  0  0
   -4.4095    8.0841  -25.0682 N   0  0  0  0  0  0  0  0  0  0  0  0
   -3.1834    8.6844  -25.0401 C   0  0  0  0  0  0  0  0  0  0  0  0
   -2.6111    8.5541  -23.8664 N   0  0  0  0  0  0  0  0  0  0  0  0
   -5.0900    6.1093  -17.8481 C   0  0  0  0  0  0  0  0  0  0  0  0
   -5.3332    6.0058  -16.4906 C   0  0  0  0  0  0  0  0  0  0  0  0
   -6.6356    5.4533  -16.3150 C   0  0  0  0  0  0  0  0  0  0  0  0
   -7.4900    5.1884  -15.2313 C   0  0  0  0  0  0  0  0  0  0  0  0
   -6.9463    5.6032  -13.6675 Cl  0  0  0  0  0  0  0  0  0  0  0  0
   -8.7572    4.6594  -15.4392 C   0  0  0  0  0  0  0  0  0  0  0  0
   -9.1974    4.3866  -16.7314 C   0  0  0  0  0  0  0  0  0  0  0  0
   -8.3793    4.6134  -17.8348 C   0  0  0  0  0  0  0  0  0  0  0  0
   -7.1128    5.1494  -17.5925 C   0  0  0  0  0  0  0  0  0  0  0  0
   -6.1300    5.4764  -18.4886 N   0  0  0  0  0  0  0  0  0  0  0  0
  1  2  2  0
  2  3  1  0
  3  4  1  0
  4  5  1  0
  5  6  1  0
  6  7  2  0
  7  8  1  0
  8  9  1  0
  9 10  2  0
  2 11  1  0
 11 12  2  0
 12 13  1  0
 13 14  2  0
 14 15  1  0
 14 16  1  0
 16 17  2  0
 17 18  1  0
 18 19  2  0
 19 20  1  0
 10  6  1  0
 20 11  1  0
 19 13  1  0
M  END
>  <inchikey>  (339) 
NRGNZMZNCZZXII-UHFFFAOYSA-N

>  <alias>  (339) 
O=C(NCCc1c[nH]cn1)c1cc2c(Cl)cccc2[nH]1

>  <tags>  (339) 
{'openbind_xx01zvns2b_c1_knitwork_pure', 'fragmenstein_placed'}

>  <HIPPO Pose ID>  (339) 
48188

>  <ref_pdb>  (339) 
41

>  <smiles>  (339) 
C51401-P5

>  <fragmenstein_runtime>  (339) 
3.922467

>  <fragmenstein_outcome>  (339) 
acceptable

>  <fragmenstein_mode>  (339) 
expansion

>  <fragmenstein_error>  (339) 


>  <HIPPO Compound ID>  (339) 
3232

>  <Energy>  (339) 
20.151474

>  <scratch_subdir>  (339) 
/opt/xchem-fragalysis-2/maxwin/BulkDock/SCRATCH/511031/C51401-P5

$$$$
Cn1c(C(=O)NCCc2c[nH]cn2)cc2ccccc21
     RDKit          3D

 20 22  0  0  0  0  0  0  0  0999 V2000
   -5.9045    4.9956  -19.5261 C   0  0  0  0  0  0  0  0  0  0  0  0
   -5.9172    5.4760  -18.1607 N   0  0  0  0  0  0  0  0  0  0  0  0
   -4.8959    6.1958  -17.5695 C   0  0  0  0  0  0  0  0  0  0  0  0
   -3.7703    6.7682  -18.2832 C   0  0  0  0  0  0  0  0  0  0  0  0
   -2.6698    6.4828  -18.0383 O   0  0  0  0  0  0  0  0  0  0  0  0
   -4.3421    7.6738  -19.3824 N   0  0  0  0  0  0  0  0  0  0  0  0
   -3.6877    8.3470  -20.4750 C   0  0  0  0  0  0  0  0  0  0  0  0
   -3.3185    7.3310  -21.5509 C   0  0  0  0  0  0  0  0  0  0  0  0
   -3.5198    7.8367  -22.9308 C   0  0  0  0  0  0  0  0  0  0  0  0
   -4.6119    7.6776  -23.7578 C   0  0  0  0  0  0  0  0  0  0  0  0
   -4.2611    8.2783  -24.9338 N   0  0  0  0  0  0  0  0  0  0  0  0
   -3.0001    8.7787  -24.7779 C   0  0  0  0  0  0  0  0  0  0  0  0
   -2.5294    8.5335  -23.5770 N   0  0  0  0  0  0  0  0  0  0  0  0
   -5.1527    6.1973  -16.2117 C   0  0  0  0  0  0  0  0  0  0  0  0
   -6.4397    5.6260  -16.0055 C   0  0  0  0  0  0  0  0  0  0  0  0
   -7.2449    5.4140  -14.8713 C   0  0  0  0  0  0  0  0  0  0  0  0
   -8.5042    4.8305  -15.0304 C   0  0  0  0  0  0  0  0  0  0  0  0
   -8.9683    4.4741  -16.2931 C   0  0  0  0  0  0  0  0  0  0  0  0
   -8.1866    4.6609  -17.4290 C   0  0  0  0  0  0  0  0  0  0  0  0
   -6.9195    5.2294  -17.2542 C   0  0  0  0  0  0  0  0  0  0  0  0
  1  2  1  0
  2  3  1  0
  3  4  1  0
  4  5  2  0
  4  6  1  0
  6  7  1  0
  7  8  1  0
  8  9  1  0
  9 10  2  0
 10 11  1  0
 11 12  1  0
 12 13  2  0
  3 14  2  0
 14 15  1  0
 15 16  2  0
 16 17  1  0
 17 18  2  0
 18 19  1  0
 19 20  2  0
 20  2  1  0
 13  9  1  0
 20 15  1  0
M  END
>  <inchikey>  (340) 
KWBRQRDLVQTZCX-UHFFFAOYSA-N

>  <alias>  (340) 
Cn1c(C(=O)NCCc2c[nH]cn2)cc2ccccc21

>  <tags>  (340) 
{'openbind_xx01zvns2b_c1_knitwork_pure', 'fragmenstein_placed'}

>  <HIPPO Pose ID>  (340) 
48190

>  <ref_pdb>  (340) 
41

>  <smiles>  (340) 
C51403-P5

>  <fragmenstein_runtime>  (340) 
4.438217

>  <fragmenstein_outcome>  (340) 
acceptable

>  <fragmenstein_mode>  (340) 
expansion

>  <fragmenstein_error>  (340) 


>  <HIPPO Compound ID>  (340) 
47682

>  <Energy>  (340) 
13.989607

>  <scratch_subdir>  (340) 
/opt/xchem-fragalysis-2/maxwin/BulkDock/SCRATCH/511031/C51403-P5

$$$$
c1cn([C@H]2CCCNC2)cn1
     RDKit          3D

 11 12  0  0  0  0  0  0  0  0999 V2000
   -9.1748    4.4188  -17.1167 C   0  0  0  0  0  0  0  0  0  0  0  0
   -8.4783    4.5768  -18.2869 C   0  0  0  0  0  0  0  0  0  0  0  0
   -7.2392    5.0209  -17.9116 N   0  0  0  0  0  0  0  0  0  0  0  0
   -6.2058    5.4541  -18.8348 C   0  0  1  0  0  0  0  0  0  0  0  0
   -6.1577    6.9801  -18.9771 C   0  0  0  0  0  0  0  0  0  0  0  0
   -5.1027    7.3995  -19.9990 C   0  0  0  0  0  0  0  0  0  0  0  0
   -3.7463    6.7597  -19.7061 C   0  0  0  0  0  0  0  0  0  0  0  0
   -3.8429    5.2993  -19.5949 N   0  0  0  0  0  0  0  0  0  0  0  0
   -4.7919    4.9452  -18.5142 C   0  0  0  0  0  0  0  0  0  0  0  0
   -7.2183    5.0549  -16.5483 C   0  0  0  0  0  0  0  0  0  0  0  0
   -8.3833    4.7193  -16.0404 N   0  0  0  0  0  0  0  0  0  0  0  0
  1  2  2  0
  2  3  1  0
  4  3  1  1
  4  5  1  0
  5  6  1  0
  6  7  1  0
  7  8  1  0
  8  9  1  0
  3 10  1  0
 10 11  2  0
 11  1  1  0
  9  4  1  0
M  END
>  <inchikey>  (341) 
NCEUBYOYSMKTBU-UHFFFAOYSA-N

>  <alias>  (341) 
c1cn([C@H]2CCCNC2)cn1

>  <tags>  (341) 
{'openbind_xx01zvns2b_c1_knitwork_pure', 'fragmenstein_placed'}

>  <HIPPO Pose ID>  (341) 
48314

>  <ref_pdb>  (341) 
35

>  <smiles>  (341) 
C349-P35

>  <fragmenstein_runtime>  (341) 
2.017567

>  <fragmenstein_outcome>  (341) 
acceptable

>  <fragmenstein_mode>  (341) 
expansion

>  <fragmenstein_error>  (341) 


>  <HIPPO Compound ID>  (341) 
8622

>  <Energy>  (341) 
18.874118

>  <scratch_subdir>  (341) 
/opt/xchem-fragalysis-2/maxwin/BulkDock/SCRATCH/511032/C349-P35

$$$$
C[C@H](CNC(=O)c1ccn([C@H]2CCCNC2)n1)Cn1ccnc1
     RDKit          3D

 23 25  0  0  0  0  0  0  0  0999 V2000
   -3.9693    4.4187  -12.8050 C   0  0  0  0  0  0  0  0  0  0  0  0
   -4.7013    3.0763  -12.9418 C   0  0  2  0  0  0  0  0  0  0  0  0
   -6.2227    3.3022  -12.8800 C   0  0  0  0  0  0  0  0  0  0  0  0
   -6.6854    3.8427  -14.1343 N   0  0  0  0  0  0  0  0  0  0  0  0
   -8.0374    4.4739  -14.5137 C   0  0  0  0  0  0  0  0  0  0  0  0
   -8.9655    4.7279  -13.8538 O   0  0  0  0  0  0  0  0  0  0  0  0
   -8.0155    4.6609  -15.9782 C   0  0  0  0  0  0  0  0  0  0  0  0
   -9.0785    4.5080  -16.8965 C   0  0  0  0  0  0  0  0  0  0  0  0
   -8.5215    4.7125  -18.1353 C   0  0  0  0  0  0  0  0  0  0  0  0
   -7.2088    5.0173  -17.9161 N   0  0  0  0  0  0  0  0  0  0  0  0
   -6.2323    5.4481  -18.9064 C   0  0  1  0  0  0  0  0  0  0  0  0
   -6.1940    6.9751  -19.0349 C   0  0  0  0  0  0  0  0  0  0  0  0
   -5.1619    7.4191  -20.0691 C   0  0  0  0  0  0  0  0  0  0  0  0
   -3.7927    6.7943  -19.8055 C   0  0  0  0  0  0  0  0  0  0  0  0
   -3.8729    5.3311  -19.7233 N   0  0  0  0  0  0  0  0  0  0  0  0
   -4.8011    4.9519  -18.6302 C   0  0  0  0  0  0  0  0  0  0  0  0
   -6.8617    4.9442  -16.6192 N   0  0  0  0  0  0  0  0  0  0  0  0
   -4.2295    2.0747  -11.8739 C   0  0  0  0  0  0  0  0  0  0  0  0
   -2.8866    1.5394  -12.0553 N   0  0  0  0  0  0  0  0  0  0  0  0
   -2.1832    0.8607  -11.0985 C   0  0  0  0  0  0  0  0  0  0  0  0
   -1.0238    0.4549  -11.7173 C   0  0  0  0  0  0  0  0  0  0  0  0
   -0.9909    0.8789  -13.0217 N   0  0  0  0  0  0  0  0  0  0  0  0
   -2.1209    1.5330  -13.1877 C   0  0  0  0  0  0  0  0  0  0  0  0
  2  1  1  1
  2  3  1  0
  3  4  1  0
  4  5  1  0
  5  6  2  0
  5  7  1  0
  7  8  1  0
  8  9  2  0
  9 10  1  0
 11 10  1  1
 11 12  1  0
 12 13  1  0
 13 14  1  0
 14 15  1  0
 15 16  1  0
 10 17  1  0
  2 18  1  0
 18 19  1  0
 19 20  1  0
 20 21  2  0
 21 22  1  0
 22 23  2  0
 17  7  2  0
 23 19  1  0
 16 11  1  0
M  END
>  <inchikey>  (342) 
BCEHPRCRZJBUSQ-UHFFFAOYSA-N

>  <alias>  (342) 
C[C@H](CNC(=O)c1ccn([C@H]2CCCNC2)n1)Cn1ccnc1

>  <tags>  (342) 
{'openbind_xx01zvns2b_c1_knitwork_pure', 'fragmenstein_placed'}

>  <HIPPO Pose ID>  (342) 
48329

>  <ref_pdb>  (342) 
35

>  <smiles>  (342) 
C383-P35

>  <fragmenstein_runtime>  (342) 
3.437366

>  <fragmenstein_outcome>  (342) 
acceptable

>  <fragmenstein_mode>  (342) 
expansion

>  <fragmenstein_error>  (342) 


>  <HIPPO Compound ID>  (342) 
8671

>  <Energy>  (342) 
60.539196

>  <scratch_subdir>  (342) 
/opt/xchem-fragalysis-2/maxwin/BulkDock/SCRATCH/511032/C383-P35

$$$$
C[C@@H](Cn1ccnc1)NC(=O)c1ccn([C@H]2CCCNC2)n1
     RDKit          3D

 22 24  0  0  0  0  0  0  0  0999 V2000
   -4.8505    2.8103  -12.9274 C   0  0  0  0  0  0  0  0  0  0  0  0
   -6.3674    2.7754  -13.1133 C   0  0  1  0  0  0  0  0  0  0  0  0
   -7.1618    3.0623  -11.8389 C   0  0  0  0  0  0  0  0  0  0  0  0
   -6.7350    4.2372  -11.0995 N   0  0  0  0  0  0  0  0  0  0  0  0
   -7.0132    5.5431  -11.3886 C   0  0  0  0  0  0  0  0  0  0  0  0
   -6.3814    6.2708  -10.4084 C   0  0  0  0  0  0  0  0  0  0  0  0
   -5.7455    5.4448   -9.5202 N   0  0  0  0  0  0  0  0  0  0  0  0
   -6.0014    4.2254   -9.9432 C   0  0  0  0  0  0  0  0  0  0  0  0
   -6.7526    3.5051  -14.3030 N   0  0  0  0  0  0  0  0  0  0  0  0
   -8.0396    4.2927  -14.6229 C   0  0  0  0  0  0  0  0  0  0  0  0
   -8.9605    4.5435  -13.9504 O   0  0  0  0  0  0  0  0  0  0  0  0
   -7.9939    4.6360  -16.0506 C   0  0  0  0  0  0  0  0  0  0  0  0
   -9.0618    4.5446  -16.9718 C   0  0  0  0  0  0  0  0  0  0  0  0
   -8.4977    4.7860  -18.1981 C   0  0  0  0  0  0  0  0  0  0  0  0
   -7.1823    5.0664  -17.9646 N   0  0  0  0  0  0  0  0  0  0  0  0
   -6.1948    5.4941  -18.9431 C   0  0  1  0  0  0  0  0  0  0  0  0
   -6.1416    7.0210  -19.0635 C   0  0  0  0  0  0  0  0  0  0  0  0
   -5.1016    7.4572  -20.0928 C   0  0  0  0  0  0  0  0  0  0  0  0
   -3.7408    6.8142  -19.8289 C   0  0  0  0  0  0  0  0  0  0  0  0
   -3.8385    5.3517  -19.7566 N   0  0  0  0  0  0  0  0  0  0  0  0
   -4.7713    4.9772  -18.6648 C   0  0  0  0  0  0  0  0  0  0  0  0
   -6.8383    4.9451  -16.6702 N   0  0  0  0  0  0  0  0  0  0  0  0
  2  1  1  1
  2  3  1  0
  3  4  1  0
  4  5  1  0
  5  6  2  0
  6  7  1  0
  7  8  2  0
  2  9  1  0
  9 10  1  0
 10 11  2  0
 10 12  1  0
 12 13  1  0
 13 14  2  0
 14 15  1  0
 16 15  1  1
 16 17  1  0
 17 18  1  0
 18 19  1  0
 19 20  1  0
 20 21  1  0
 15 22  1  0
  8  4  1  0
 22 12  2  0
 21 16  1  0
M  END
>  <inchikey>  (343) 
VDUXJDKQPXGOQY-UHFFFAOYSA-N

>  <alias>  (343) 
C[C@@H](Cn1ccnc1)NC(=O)c1ccn([C@H]2CCCNC2)n1

>  <tags>  (343) 
{'openbind_xx01zvns2b_c1_knitwork_pure', 'fragmenstein_placed'}

>  <HIPPO Pose ID>  (343) 
48332

>  <ref_pdb>  (343) 
35

>  <smiles>  (343) 
C386-P35

>  <fragmenstein_runtime>  (343) 
3.434302

>  <fragmenstein_outcome>  (343) 
acceptable

>  <fragmenstein_mode>  (343) 
expansion

>  <fragmenstein_error>  (343) 


>  <HIPPO Compound ID>  (343) 
14536

>  <Energy>  (343) 
69.70587

>  <scratch_subdir>  (343) 
/opt/xchem-fragalysis-2/maxwin/BulkDock/SCRATCH/511032/C386-P35

$$$$
CC[C@@H](Nc1ccccc1OCCF)c1ccncc1
     RDKit          3D

 20 21  0  0  0  0  0  0  0  0999 V2000
   -7.1710    7.6082  -14.0120 C   0  0  0  0  0  0  0  0  0  0  0  0
   -8.3706    6.6796  -14.2338 C   0  0  0  0  0  0  0  0  0  0  0  0
   -8.1222    5.1984  -13.9139 C   0  0  1  0  0  0  0  0  0  0  0  0
   -6.9353    4.7064  -14.6256 N   0  0  0  0  0  0  0  0  0  0  0  0
   -6.9139    4.8269  -16.0377 C   0  0  0  0  0  0  0  0  0  0  0  0
   -7.9982    4.4362  -16.8327 C   0  0  0  0  0  0  0  0  0  0  0  0
   -7.9355    4.5323  -18.2239 C   0  0  0  0  0  0  0  0  0  0  0  0
   -6.7809    5.0013  -18.8385 C   0  0  0  0  0  0  0  0  0  0  0  0
   -5.6979    5.4119  -18.0710 C   0  0  0  0  0  0  0  0  0  0  0  0
   -5.7531    5.3238  -16.6784 C   0  0  0  0  0  0  0  0  0  0  0  0
   -4.7470    5.7224  -15.8317 O   0  0  0  0  0  0  0  0  0  0  0  0
   -3.5492    6.2493  -16.4059 C   0  0  0  0  0  0  0  0  0  0  0  0
   -2.6744    5.1654  -17.0218 C   0  0  0  0  0  0  0  0  0  0  0  0
   -2.5473    5.3847  -18.3619 F   0  0  0  0  0  0  0  0  0  0  0  0
   -8.0181    4.9029  -12.4203 C   0  0  0  0  0  0  0  0  0  0  0  0
   -7.8671    3.5773  -11.9983 C   0  0  0  0  0  0  0  0  0  0  0  0
   -7.8320    3.2977  -10.6387 C   0  0  0  0  0  0  0  0  0  0  0  0
   -7.9285    4.2374   -9.6710 N   0  0  0  0  0  0  0  0  0  0  0  0
   -8.0930    5.5040  -10.0857 C   0  0  0  0  0  0  0  0  0  0  0  0
   -8.1481    5.8777  -11.4189 C   0  0  0  0  0  0  0  0  0  0  0  0
  1  2  1  0
  3  2  1  1
  3  4  1  0
  4  5  1  0
  5  6  2  0
  6  7  1  0
  7  8  2  0
  8  9  1  0
  9 10  2  0
 10 11  1  0
 11 12  1  0
 12 13  1  0
 13 14  1  0
  3 15  1  0
 15 16  2  0
 16 17  1  0
 17 18  2  0
 18 19  1  0
 19 20  2  0
 10  5  1  0
 20 15  1  0
M  END
>  <inchikey>  (344) 
FIOYFPWPQOOVJU-UHFFFAOYSA-N

>  <alias>  (344) 
CC[C@@H](Nc1ccccc1OCCF)c1ccncc1

>  <tags>  (344) 
{'openbind_xx01zvns2b_c1_knitwork_pure', 'fragmenstein_placed'}

>  <HIPPO Pose ID>  (344) 
48397

>  <ref_pdb>  (344) 
35

>  <smiles>  (344) 
C621-P23

>  <fragmenstein_runtime>  (344) 
3.737637

>  <fragmenstein_outcome>  (344) 
acceptable

>  <fragmenstein_mode>  (344) 
expansion

>  <fragmenstein_error>  (344) 


>  <HIPPO Compound ID>  (344) 
621

>  <Energy>  (344) 
63.956559

>  <scratch_subdir>  (344) 
/opt/xchem-fragalysis-2/maxwin/BulkDock/SCRATCH/511032/C621-P23

$$$$
CC[C@H](CN[C@H](C)c1cc2ccccc2nc1OC)n1cccn1
     RDKit          3D

 24 26  0  0  0  0  0  0  0  0999 V2000
   -7.5993    8.4682   -9.2046 C   0  0  0  0  0  0  0  0  0  0  0  0
   -6.9408    8.5239  -10.5785 C   0  0  0  0  0  0  0  0  0  0  0  0
   -6.1324    7.2521  -10.9240 C   0  0  2  0  0  0  0  0  0  0  0  0
   -5.3495    7.4670  -12.2654 C   0  0  0  0  0  0  0  0  0  0  0  0
   -4.1915    6.6002  -12.5406 N   0  0  0  0  0  0  0  0  0  0  0  0
   -4.5328    5.2433  -12.9984 C   0  0  2  0  0  0  0  0  0  0  0  0
   -3.3238    4.3278  -12.8229 C   0  0  0  0  0  0  0  0  0  0  0  0
   -5.1066    5.1844  -14.3983 C   0  0  0  0  0  0  0  0  0  0  0  0
   -6.4230    4.7385  -14.5605 C   0  0  0  0  0  0  0  0  0  0  0  0
   -7.0380    4.7081  -15.8110 C   0  0  0  0  0  0  0  0  0  0  0  0
   -8.3830    4.3262  -15.9457 C   0  0  0  0  0  0  0  0  0  0  0  0
   -8.9702    4.2675  -17.2023 C   0  0  0  0  0  0  0  0  0  0  0  0
   -8.2054    4.5686  -18.3194 C   0  0  0  0  0  0  0  0  0  0  0  0
   -6.8713    4.9697  -18.1757 C   0  0  0  0  0  0  0  0  0  0  0  0
   -6.2660    5.0612  -16.9283 C   0  0  0  0  0  0  0  0  0  0  0  0
   -4.9863    5.4691  -16.8066 N   0  0  0  0  0  0  0  0  0  0  0  0
   -4.4363    5.5331  -15.5655 C   0  0  0  0  0  0  0  0  0  0  0  0
   -3.1260    5.9543  -15.4552 O   0  0  0  0  0  0  0  0  0  0  0  0
   -2.5332    6.2942  -16.7021 C   0  0  0  0  0  0  0  0  0  0  0  0
   -6.9985    6.0725  -10.9243 N   0  0  0  0  0  0  0  0  0  0  0  0
   -8.0532    5.8116  -11.7546 C   0  0  0  0  0  0  0  0  0  0  0  0
   -8.4310    4.5160  -11.4888 C   0  0  0  0  0  0  0  0  0  0  0  0
   -7.6217    4.1139  -10.4166 C   0  0  0  0  0  0  0  0  0  0  0  0
   -6.7682    5.0718  -10.0425 N   0  0  0  0  0  0  0  0  0  0  0  0
  1  2  1  0
  3  2  1  6
  3  4  1  0
  4  5  1  0
  5  6  1  0
  6  7  1  6
  6  8  1  0
  8  9  2  0
  9 10  1  0
 10 11  2  0
 11 12  1  0
 12 13  2  0
 13 14  1  0
 14 15  2  0
 15 16  1  0
 16 17  2  0
 17 18  1  0
 18 19  1  0
  3 20  1  0
 20 21  1  0
 21 22  2  0
 22 23  1  0
 23 24  2  0
 17  8  1  0
 24 20  1  0
 15 10  1  0
M  END
>  <inchikey>  (345) 
DTSQOALKTAXRLL-UHFFFAOYSA-N

>  <alias>  (345) 
CC[C@H](CN[C@H](C)c1cc2ccccc2nc1OC)n1cccn1

>  <tags>  (345) 
{'openbind_xx01zvns2b_c1_knitwork_pure', 'fragmenstein_placed'}

>  <HIPPO Pose ID>  (345) 
48437

>  <ref_pdb>  (345) 
35

>  <smiles>  (345) 
C983-P94

>  <fragmenstein_runtime>  (345) 
1.906445

>  <fragmenstein_outcome>  (345) 
acceptable

>  <fragmenstein_mode>  (345) 
expansion

>  <fragmenstein_error>  (345) 


>  <HIPPO Compound ID>  (345) 
14716

>  <Energy>  (345) 
54.000775

>  <scratch_subdir>  (345) 
/opt/xchem-fragalysis-2/maxwin/BulkDock/SCRATCH/511032/C983-P94

$$$$
CN1CCn2nc(NCc3ccncc3)cc2C1
     RDKit          3D

 18 20  0  0  0  0  0  0  0  0999 V2000
   -6.4119    5.1434   -7.5705 C   0  0  0  0  0  0  0  0  0  0  0  0
   -7.8661    5.2277   -7.6899 N   0  0  0  0  0  0  0  0  0  0  0  0
   -8.4705    3.8925   -7.9242 C   0  0  0  0  0  0  0  0  0  0  0  0
   -8.1471    3.2447   -9.2778 C   0  0  0  0  0  0  0  0  0  0  0  0
   -8.1518    4.2494  -10.3192 N   0  0  0  0  0  0  0  0  0  0  0  0
   -8.0101    3.9104  -11.6084 N   0  0  0  0  0  0  0  0  0  0  0  0
   -8.1044    5.0670  -12.2592 C   0  0  0  0  0  0  0  0  0  0  0  0
   -8.0840    5.2337  -13.5966 N   0  0  0  0  0  0  0  0  0  0  0  0
   -7.3917    4.2425  -14.4028 C   0  0  0  0  0  0  0  0  0  0  0  0
   -7.7992    4.3869  -15.8444 C   0  0  0  0  0  0  0  0  0  0  0  0
   -6.8955    4.6978  -16.8603 C   0  0  0  0  0  0  0  0  0  0  0  0
   -7.3526    4.6768  -18.1696 C   0  0  0  0  0  0  0  0  0  0  0  0
   -8.6281    4.3969  -18.5129 N   0  0  0  0  0  0  0  0  0  0  0  0
   -9.4929    4.1419  -17.5217 C   0  0  0  0  0  0  0  0  0  0  0  0
   -9.1217    4.1176  -16.1952 C   0  0  0  0  0  0  0  0  0  0  0  0
   -8.2106    6.1560  -11.3664 C   0  0  0  0  0  0  0  0  0  0  0  0
   -8.1904    5.5974  -10.1090 C   0  0  0  0  0  0  0  0  0  0  0  0
   -8.2577    6.1740   -8.7480 C   0  0  0  0  0  0  0  0  0  0  0  0
  1  2  1  0
  2  3  1  0
  3  4  1  0
  4  5  1  0
  5  6  1  0
  6  7  2  0
  7  8  1  0
  8  9  1  0
  9 10  1  0
 10 11  2  0
 11 12  1  0
 12 13  2  0
 13 14  1  0
 14 15  2  0
  7 16  1  0
 16 17  2  0
 17 18  1  0
 18  2  1  0
 17  5  1  0
 15 10  1  0
M  END
>  <inchikey>  (346) 
UTPWLWYZHQZIHU-UHFFFAOYSA-N

>  <alias>  (346) 
CN1CCn2nc(NCc3ccncc3)cc2C1

>  <tags>  (346) 
{'openbind_xx01zvns2b_c1_knitwork_pure', 'fragmenstein_placed'}

>  <HIPPO Pose ID>  (346) 
48466

>  <ref_pdb>  (346) 
35

>  <smiles>  (346) 
C1131-P59

>  <fragmenstein_runtime>  (346) 
1.861435

>  <fragmenstein_outcome>  (346) 
acceptable

>  <fragmenstein_mode>  (346) 
expansion

>  <fragmenstein_error>  (346) 


>  <HIPPO Compound ID>  (346) 
4074

>  <Energy>  (346) 
-31.554734

>  <scratch_subdir>  (346) 
/opt/xchem-fragalysis-2/maxwin/BulkDock/SCRATCH/511032/C1131-P59

$$$$
O=C(C[C@@H]1CCCS1(=O)=O)NCc1cccnc1
     RDKit          3D

 18 19  0  0  0  0  0  0  0  0999 V2000
   -6.9001    1.6315  -13.3577 O   0  0  0  0  0  0  0  0  0  0  0  0
   -6.3030    2.6187  -13.1822 C   0  0  0  0  0  0  0  0  0  0  0  0
   -5.0180    2.6257  -12.3629 C   0  0  0  0  0  0  0  0  0  0  0  0
   -3.7935    2.4513  -13.2524 C   0  0  2  0  0  0  0  0  0  0  0  0
   -2.5739    1.9125  -12.4849 C   0  0  0  0  0  0  0  0  0  0  0  0
   -1.8390    3.1158  -11.9010 C   0  0  0  0  0  0  0  0  0  0  0  0
   -1.6861    4.1017  -13.0502 C   0  0  0  0  0  0  0  0  0  0  0  0
   -3.2309    4.0190  -13.9414 S   0  0  0  0  0  0  0  0  0  0  0  0
   -4.0751    5.1007  -13.4689 O   0  0  0  0  0  0  0  0  0  0  0  0
   -2.9466    3.8482  -15.3503 O   0  0  0  0  0  0  0  0  0  0  0  0
   -6.6074    4.0688  -13.6312 N   0  0  0  0  0  0  0  0  0  0  0  0
   -7.7547    4.6169  -14.3056 C   0  0  0  0  0  0  0  0  0  0  0  0
   -7.7231    4.5391  -15.8034 C   0  0  0  0  0  0  0  0  0  0  0  0
   -6.6079    4.8718  -16.5738 C   0  0  0  0  0  0  0  0  0  0  0  0
   -6.6831    4.8126  -17.9652 C   0  0  0  0  0  0  0  0  0  0  0  0
   -7.8738    4.4206  -18.5472 C   0  0  0  0  0  0  0  0  0  0  0  0
   -8.9843    4.1167  -17.8429 N   0  0  0  0  0  0  0  0  0  0  0  0
   -8.8809    4.1978  -16.4983 C   0  0  0  0  0  0  0  0  0  0  0  0
  1  2  2  0
  2  3  1  0
  4  3  1  1
  4  5  1  0
  5  6  1  0
  6  7  1  0
  7  8  1  0
  8  9  2  0
  8 10  2  0
  2 11  1  0
 11 12  1  0
 12 13  1  0
 13 14  2  0
 14 15  1  0
 15 16  2  0
 16 17  1  0
 17 18  2  0
  8  4  1  0
 18 13  1  0
M  END
>  <inchikey>  (347) 
PCASWMFUWRFWML-UHFFFAOYSA-N

>  <alias>  (347) 
O=C(C[C@@H]1CCCS1(=O)=O)NCc1cccnc1

>  <tags>  (347) 
{'openbind_xx01zvns2b_c1_knitwork_pure', 'fragmenstein_placed'}

>  <HIPPO Pose ID>  (347) 
48694

>  <ref_pdb>  (347) 
35

>  <smiles>  (347) 
C2607-P35

>  <fragmenstein_runtime>  (347) 
2.700855

>  <fragmenstein_outcome>  (347) 
acceptable

>  <fragmenstein_mode>  (347) 
expansion

>  <fragmenstein_error>  (347) 


>  <HIPPO Compound ID>  (347) 
2607

>  <Energy>  (347) 
-11.057731

>  <scratch_subdir>  (347) 
/opt/xchem-fragalysis-2/maxwin/BulkDock/SCRATCH/511032/C2607-P35

$$$$
CCCC[C@H](CO)Cc1cn(CC(=O)NCc2cccnc2)nn1
     RDKit          3D

 24 25  0  0  0  0  0  0  0  0999 V2000
   -5.5224    5.9721   -3.6369 C   0  0  0  0  0  0  0  0  0  0  0  0
   -4.3518    6.7339   -4.2392 C   0  0  0  0  0  0  0  0  0  0  0  0
   -4.1717    6.4937   -5.7414 C   0  0  0  0  0  0  0  0  0  0  0  0
   -3.7924    5.0460   -6.0761 C   0  0  0  0  0  0  0  0  0  0  0  0
   -3.4742    4.7760   -7.5659 C   0  0  2  0  0  0  0  0  0  0  0  0
   -2.2650    5.6077   -8.0304 C   0  0  0  0  0  0  0  0  0  0  0  0
   -1.6137    5.0129   -9.1471 O   0  0  0  0  0  0  0  0  0  0  0  0
   -4.7283    5.0081   -8.4361 C   0  0  0  0  0  0  0  0  0  0  0  0
   -4.5911    4.5101   -9.8277 C   0  0  0  0  0  0  0  0  0  0  0  0
   -4.9557    3.3024  -10.3779 C   0  0  0  0  0  0  0  0  0  0  0  0
   -4.5846    3.4129  -11.6818 N   0  0  0  0  0  0  0  0  0  0  0  0
   -4.7894    2.4763  -12.7595 C   0  0  0  0  0  0  0  0  0  0  0  0
   -6.2050    2.5671  -13.3027 C   0  0  0  0  0  0  0  0  0  0  0  0
   -6.9273    1.6475  -13.2732 O   0  0  0  0  0  0  0  0  0  0  0  0
   -6.4237    4.0040  -13.8614 N   0  0  0  0  0  0  0  0  0  0  0  0
   -7.6022    4.6248  -14.4079 C   0  0  0  0  0  0  0  0  0  0  0  0
   -7.7053    4.5462  -15.9016 C   0  0  0  0  0  0  0  0  0  0  0  0
   -6.6623    4.8873  -16.7654 C   0  0  0  0  0  0  0  0  0  0  0  0
   -6.8478    4.8001  -18.1441 C   0  0  0  0  0  0  0  0  0  0  0  0
   -8.0731    4.3705  -18.6175 C   0  0  0  0  0  0  0  0  0  0  0  0
   -9.1178    4.0626  -17.8208 N   0  0  0  0  0  0  0  0  0  0  0  0
   -8.9093    4.1741  -16.4917 C   0  0  0  0  0  0  0  0  0  0  0  0
   -4.0045    4.6044  -11.9311 N   0  0  0  0  0  0  0  0  0  0  0  0
   -4.0113    5.2903  -10.7980 N   0  0  0  0  0  0  0  0  0  0  0  0
  1  2  1  0
  2  3  1  0
  3  4  1  0
  5  4  1  1
  5  6  1  0
  6  7  1  0
  5  8  1  0
  8  9  1  0
  9 10  2  0
 10 11  1  0
 11 12  1  0
 12 13  1  0
 13 14  2  0
 13 15  1  0
 15 16  1  0
 16 17  1  0
 17 18  2  0
 18 19  1  0
 19 20  2  0
 20 21  1  0
 21 22  2  0
 11 23  1  0
 23 24  2  0
 24  9  1  0
 22 17  1  0
M  END
>  <inchikey>  (348) 
CASBUHRHBTVSDU-UHFFFAOYSA-N

>  <alias>  (348) 
CCCC[C@H](CO)Cc1cn(CC(=O)NCc2cccnc2)nn1

>  <tags>  (348) 
{'openbind_xx01zvns2b_c1_knitwork_pure', 'fragmenstein_placed'}

>  <HIPPO Pose ID>  (348) 
48695

>  <ref_pdb>  (348) 
35

>  <smiles>  (348) 
C2610-P35

>  <fragmenstein_runtime>  (348) 
2.797032

>  <fragmenstein_outcome>  (348) 
acceptable

>  <fragmenstein_mode>  (348) 
expansion

>  <fragmenstein_error>  (348) 


>  <HIPPO Compound ID>  (348) 
13057

>  <Energy>  (348) 
19.657336

>  <scratch_subdir>  (348) 
/opt/xchem-fragalysis-2/maxwin/BulkDock/SCRATCH/511032/C2610-P35

$$$$
N#CCn1c([C@@H]2CCCNC2)nc2cc(F)ccc21
     RDKit          3D

 19 21  0  0  0  0  0  0  0  0999 V2000
   -7.2949    3.0705  -20.1510 N   0  0  0  0  0  0  0  0  0  0  0  0
   -7.8389    3.6289  -19.2906 C   0  0  0  0  0  0  0  0  0  0  0  0
   -8.4851    4.4014  -18.2407 C   0  0  0  0  0  0  0  0  0  0  0  0
   -7.5913    4.8393  -17.1675 N   0  0  0  0  0  0  0  0  0  0  0  0
   -6.3556    5.4601  -17.2716 C   0  0  0  0  0  0  0  0  0  0  0  0
   -5.5576    5.6667  -18.5252 C   0  0  2  0  0  0  0  0  0  0  0  0
   -4.0548    5.4921  -18.2633 C   0  0  0  0  0  0  0  0  0  0  0  0
   -3.2705    5.7480  -19.5452 C   0  0  0  0  0  0  0  0  0  0  0  0
   -3.6267    7.1064  -20.1489 C   0  0  0  0  0  0  0  0  0  0  0  0
   -5.0670    7.2716  -20.3713 N   0  0  0  0  0  0  0  0  0  0  0  0
   -5.8028    7.0563  -19.1156 C   0  0  0  0  0  0  0  0  0  0  0  0
   -5.9277    5.8482  -16.0855 N   0  0  0  0  0  0  0  0  0  0  0  0
   -6.8154    5.3632  -15.1754 C   0  0  0  0  0  0  0  0  0  0  0  0
   -6.7440    5.4021  -13.7747 C   0  0  0  0  0  0  0  0  0  0  0  0
   -7.7753    4.8220  -13.0558 C   0  0  0  0  0  0  0  0  0  0  0  0
   -7.7452    4.7941  -11.7158 F   0  0  0  0  0  0  0  0  0  0  0  0
   -8.8587    4.2650  -13.7041 C   0  0  0  0  0  0  0  0  0  0  0  0
   -8.9582    4.2280  -15.1001 C   0  0  0  0  0  0  0  0  0  0  0  0
   -7.8929    4.7648  -15.8183 C   0  0  0  0  0  0  0  0  0  0  0  0
  1  2  3  0
  2  3  1  0
  3  4  1  0
  4  5  1  0
  6  5  1  1
  6  7  1  0
  7  8  1  0
  8  9  1  0
  9 10  1  0
 10 11  1  0
  5 12  2  0
 12 13  1  0
 13 14  2  0
 14 15  1  0
 15 16  1  0
 15 17  2  0
 17 18  1  0
 18 19  2  0
 19  4  1  0
 11  6  1  0
 19 13  1  0
M  END
>  <inchikey>  (349) 
NBEFUQNLDAAIFE-UHFFFAOYSA-N

>  <alias>  (349) 
N#CCn1c([C@@H]2CCCNC2)nc2cc(F)ccc21

>  <tags>  (349) 
{'openbind_xx01zvns2b_c1_knitwork_pure', 'fragmenstein_placed'}

>  <HIPPO Pose ID>  (349) 
48728

>  <ref_pdb>  (349) 
35

>  <smiles>  (349) 
C2856-P145

>  <fragmenstein_runtime>  (349) 
17.560743

>  <fragmenstein_outcome>  (349) 
acceptable

>  <fragmenstein_mode>  (349) 
expansion

>  <fragmenstein_error>  (349) 


>  <HIPPO Compound ID>  (349) 
10072

>  <Energy>  (349) 
26.022187

>  <scratch_subdir>  (349) 
/opt/xchem-fragalysis-2/maxwin/BulkDock/SCRATCH/511032/C2856-P145

$$$$
O=C(NCCc1ccc2ncsc2c1)c1cnn2c1CNCC2
     RDKit          3D

 23 26  0  0  0  0  0  0  0  0999 V2000
   -8.5003    6.3133  -10.7509 O   0  0  0  0  0  0  0  0  0  0  0  0
   -8.1053    5.2859  -10.3719 C   0  0  0  0  0  0  0  0  0  0  0  0
   -7.4714    4.1191  -11.1401 N   0  0  0  0  0  0  0  0  0  0  0  0
   -7.2748    3.9278  -12.5464 C   0  0  0  0  0  0  0  0  0  0  0  0
   -7.1247    5.2555  -13.2705 C   0  0  0  0  0  0  0  0  0  0  0  0
   -7.0929    5.0866  -14.7597 C   0  0  0  0  0  0  0  0  0  0  0  0
   -5.9135    5.2962  -15.4726 C   0  0  0  0  0  0  0  0  0  0  0  0
   -5.8906    5.1361  -16.8578 C   0  0  0  0  0  0  0  0  0  0  0  0
   -7.0646    4.7592  -17.5359 C   0  0  0  0  0  0  0  0  0  0  0  0
   -7.1739    4.5448  -18.8929 N   0  0  0  0  0  0  0  0  0  0  0  0
   -8.4146    4.2136  -19.1688 C   0  0  0  0  0  0  0  0  0  0  0  0
   -9.5138    4.1425  -17.8709 S   0  0  0  0  0  0  0  0  0  0  0  0
   -8.2375    4.5663  -16.8053 C   0  0  0  0  0  0  0  0  0  0  0  0
   -8.2750    4.7207  -15.4198 C   0  0  0  0  0  0  0  0  0  0  0  0
   -8.2351    4.9518   -8.9679 C   0  0  0  0  0  0  0  0  0  0  0  0
   -8.1470    5.8725   -7.9015 C   0  0  0  0  0  0  0  0  0  0  0  0
   -8.3835    5.3130   -6.7147 N   0  0  0  0  0  0  0  0  0  0  0  0
   -8.6384    4.0299   -7.0313 N   0  0  0  0  0  0  0  0  0  0  0  0
   -8.5984    3.7540   -8.3694 C   0  0  0  0  0  0  0  0  0  0  0  0
   -9.0418    2.4267   -8.8905 C   0  0  0  0  0  0  0  0  0  0  0  0
   -9.2853    1.4297   -7.8485 N   0  0  0  0  0  0  0  0  0  0  0  0
   -9.8839    1.9920   -6.6420 C   0  0  0  0  0  0  0  0  0  0  0  0
   -9.0159    3.0725   -6.0140 C   0  0  0  0  0  0  0  0  0  0  0  0
  1  2  2  0
  2  3  1  0
  3  4  1  0
  4  5  1  0
  5  6  1  0
  6  7  2  0
  7  8  1  0
  8  9  2  0
  9 10  1  0
 10 11  2  0
 11 12  1  0
 12 13  1  0
 13 14  2  0
  2 15  1  0
 15 16  1  0
 16 17  2  0
 17 18  1  0
 18 19  1  0
 19 20  1  0
 20 21  1  0
 21 22  1  0
 22 23  1  0
 14  6  1  0
 19 15  2  0
 13  9  1  0
 23 18  1  0
M  END
>  <inchikey>  (350) 
JSWDYZCUCLQLHU-UHFFFAOYSA-N

>  <alias>  (350) 
O=C(NCCc1ccc2ncsc2c1)c1cnn2c1CNCC2

>  <tags>  (350) 
{'openbind_xx01zvns2b_c1_knitwork_pure', 'fragmenstein_placed'}

>  <HIPPO Pose ID>  (350) 
48924

>  <ref_pdb>  (350) 
35

>  <smiles>  (350) 
C3858-P37

>  <fragmenstein_runtime>  (350) 
3.320473

>  <fragmenstein_outcome>  (350) 
acceptable

>  <fragmenstein_mode>  (350) 
expansion

>  <fragmenstein_error>  (350) 


>  <HIPPO Compound ID>  (350) 
6047

>  <Energy>  (350) 
29.899404

>  <scratch_subdir>  (350) 
/opt/xchem-fragalysis-2/maxwin/BulkDock/SCRATCH/511032/C3858-P37

$$$$
CCOC(=O)c1csc(NC(=O)c2ccn3ccnc3c2)n1
     RDKit          3D

 22 24  0  0  0  0  0  0  0  0999 V2000
   -9.3666    4.0544  -18.2263 C   0  0  0  0  0  0  0  0  0  0  0  0
   -8.0173    4.5044  -17.7180 C   0  0  0  0  0  0  0  0  0  0  0  0
   -7.0839    4.6258  -18.8115 O   0  0  0  0  0  0  0  0  0  0  0  0
   -5.7436    4.8540  -18.6037 C   0  0  0  0  0  0  0  0  0  0  0  0
   -4.9430    4.7876  -19.5322 O   0  0  0  0  0  0  0  0  0  0  0  0
   -5.2776    5.1169  -17.2341 C   0  0  0  0  0  0  0  0  0  0  0  0
   -3.9794    4.8984  -16.7913 C   0  0  0  0  0  0  0  0  0  0  0  0
   -3.9252    5.0112  -15.0694 S   0  0  0  0  0  0  0  0  0  0  0  0
   -5.5637    5.4337  -15.0808 C   0  0  0  0  0  0  0  0  0  0  0  0
   -6.2250    5.4695  -13.9115 N   0  0  0  0  0  0  0  0  0  0  0  0
   -7.6975    5.8131  -13.6035 C   0  0  0  0  0  0  0  0  0  0  0  0
   -8.5470    6.1930  -14.3043 O   0  0  0  0  0  0  0  0  0  0  0  0
   -7.9207    5.4968  -12.1756 C   0  0  0  0  0  0  0  0  0  0  0  0
   -7.7908    6.5149  -11.1462 C   0  0  0  0  0  0  0  0  0  0  0  0
   -7.9222    6.1412   -9.8613 C   0  0  0  0  0  0  0  0  0  0  0  0
   -8.1858    4.8034   -9.5669 N   0  0  0  0  0  0  0  0  0  0  0  0
   -8.3163    4.1824   -8.3532 C   0  0  0  0  0  0  0  0  0  0  0  0
   -8.5554    2.8579   -8.6441 C   0  0  0  0  0  0  0  0  0  0  0  0
   -8.5907    2.6550   -9.9984 N   0  0  0  0  0  0  0  0  0  0  0  0
   -8.3489    3.8231  -10.5376 C   0  0  0  0  0  0  0  0  0  0  0  0
   -8.2078    4.2105  -11.8946 C   0  0  0  0  0  0  0  0  0  0  0  0
   -6.1140    5.5996  -16.2445 N   0  0  0  0  0  0  0  0  0  0  0  0
  1  2  1  0
  2  3  1  0
  3  4  1  0
  4  5  2  0
  4  6  1  0
  6  7  2  0
  7  8  1  0
  8  9  1  0
  9 10  1  0
 10 11  1  0
 11 12  2  0
 11 13  1  0
 13 14  1  0
 14 15  2  0
 15 16  1  0
 16 17  1  0
 17 18  2  0
 18 19  1  0
 19 20  2  0
 20 21  1  0
  9 22  2  0
 22  6  1  0
 21 13  2  0
 20 16  1  0
M  END
>  <inchikey>  (351) 
IANSQNGDXZKZMC-UHFFFAOYSA-N

>  <alias>  (351) 
CCOC(=O)c1csc(NC(=O)c2ccn3ccnc3c2)n1

>  <tags>  (351) 
{'openbind_xx01zvns2b_c1_knitwork_pure', 'fragmenstein_placed'}

>  <HIPPO Pose ID>  (351) 
48957

>  <ref_pdb>  (351) 
35

>  <smiles>  (351) 
C4344-P29

>  <fragmenstein_runtime>  (351) 
5.855962

>  <fragmenstein_outcome>  (351) 
acceptable

>  <fragmenstein_mode>  (351) 
expansion

>  <fragmenstein_error>  (351) 


>  <HIPPO Compound ID>  (351) 
4344

>  <Energy>  (351) 
45.254021

>  <scratch_subdir>  (351) 
/opt/xchem-fragalysis-2/maxwin/BulkDock/SCRATCH/511032/C4344-P29

$$$$
COCc1nccc(NC[C@@H]2CCCNC2)n1
     RDKit          3D

 17 18  0  0  0  0  0  0  0  0999 V2000
   -5.2523    7.5246  -20.1972 C   0  0  0  0  0  0  0  0  0  0  0  0
   -6.0447    7.2555  -19.0485 O   0  0  0  0  0  0  0  0  0  0  0  0
   -6.0129    5.8496  -18.7478 C   0  0  0  0  0  0  0  0  0  0  0  0
   -7.0909    5.4496  -17.7706 C   0  0  0  0  0  0  0  0  0  0  0  0
   -8.0170    4.5842  -18.2204 N   0  0  0  0  0  0  0  0  0  0  0  0
   -8.9037    4.1506  -17.3267 C   0  0  0  0  0  0  0  0  0  0  0  0
   -8.8744    4.5298  -16.0086 C   0  0  0  0  0  0  0  0  0  0  0  0
   -7.9357    5.4691  -15.6313 C   0  0  0  0  0  0  0  0  0  0  0  0
   -7.9432    5.8895  -14.2906 N   0  0  0  0  0  0  0  0  0  0  0  0
   -7.1022    7.0196  -13.9189 C   0  0  0  0  0  0  0  0  0  0  0  0
   -5.6880    6.6399  -13.4547 C   0  0  2  0  0  0  0  0  0  0  0  0
   -4.6701    6.4566  -14.5876 C   0  0  0  0  0  0  0  0  0  0  0  0
   -3.2583    6.2820  -14.0175 C   0  0  0  0  0  0  0  0  0  0  0  0
   -3.2653    5.8000  -12.5663 C   0  0  0  0  0  0  0  0  0  0  0  0
   -4.3285    4.8316  -12.3257 N   0  0  0  0  0  0  0  0  0  0  0  0
   -5.6648    5.4175  -12.5185 C   0  0  0  0  0  0  0  0  0  0  0  0
   -7.0325    5.9314  -16.5053 N   0  0  0  0  0  0  0  0  0  0  0  0
  1  2  1  0
  2  3  1  0
  3  4  1  0
  4  5  2  0
  5  6  1  0
  6  7  2  0
  7  8  1  0
  8  9  1  0
  9 10  1  0
 11 10  1  6
 11 12  1  0
 12 13  1  0
 13 14  1  0
 14 15  1  0
 15 16  1  0
  8 17  2  0
 17  4  1  0
 16 11  1  0
M  END
>  <inchikey>  (352) 
AQWCRQLAPPQCDG-UHFFFAOYSA-N

>  <alias>  (352) 
COCc1nccc(NC[C@@H]2CCCNC2)n1

>  <tags>  (352) 
{'openbind_xx01zvns2b_c1_knitwork_pure', 'fragmenstein_placed'}

>  <HIPPO Pose ID>  (352) 
49055

>  <ref_pdb>  (352) 
35

>  <smiles>  (352) 
C4582-P52

>  <fragmenstein_runtime>  (352) 
4.49803

>  <fragmenstein_outcome>  (352) 
acceptable

>  <fragmenstein_mode>  (352) 
expansion

>  <fragmenstein_error>  (352) 


>  <HIPPO Compound ID>  (352) 
15313

>  <Energy>  (352) 
0.461586

>  <scratch_subdir>  (352) 
/opt/xchem-fragalysis-2/maxwin/BulkDock/SCRATCH/511032/C4582-P52

$$$$
CCCN1CCCC[C@@H]1CNCc1cnn2c1CNCC2
     RDKit          3D

 21 23  0  0  0  0  0  0  0  0999 V2000
   -5.3810    7.5801  -16.3715 C   0  0  0  0  0  0  0  0  0  0  0  0
   -4.7606    6.2611  -15.9763 C   0  0  0  0  0  0  0  0  0  0  0  0
   -5.4397    5.0802  -16.6514 C   0  0  0  0  0  0  0  0  0  0  0  0
   -6.9017    5.2355  -16.7785 N   0  0  0  0  0  0  0  0  0  0  0  0
   -7.2758    4.6797  -18.0938 C   0  0  0  0  0  0  0  0  0  0  0  0
   -8.7567    4.6732  -18.4065 C   0  0  0  0  0  0  0  0  0  0  0  0
   -9.5591    4.1089  -17.2606 C   0  0  0  0  0  0  0  0  0  0  0  0
   -9.1815    4.7417  -15.9301 C   0  0  0  0  0  0  0  0  0  0  0  0
   -7.6825    4.6491  -15.6357 C   0  0  2  0  0  0  0  0  0  0  0  0
   -7.3902    5.3326  -14.2460 C   0  0  0  0  0  0  0  0  0  0  0  0
   -8.1833    4.9572  -13.0354 N   0  0  0  0  0  0  0  0  0  0  0  0
   -7.4601    5.4714  -11.8551 C   0  0  0  0  0  0  0  0  0  0  0  0
   -8.1093    5.2508  -10.5283 C   0  0  0  0  0  0  0  0  0  0  0  0
   -8.4384    6.2610   -9.5811 C   0  0  0  0  0  0  0  0  0  0  0  0
   -8.7780    5.7817   -8.3798 N   0  0  0  0  0  0  0  0  0  0  0  0
   -8.6985    4.4500   -8.5570 N   0  0  0  0  0  0  0  0  0  0  0  0
   -8.3406    4.0818   -9.8261 C   0  0  0  0  0  0  0  0  0  0  0  0
   -8.2225    2.6492  -10.1700 C   0  0  0  0  0  0  0  0  0  0  0  0
   -7.9189    1.8590   -8.9770 N   0  0  0  0  0  0  0  0  0  0  0  0
   -8.9045    2.0928   -7.9192 C   0  0  0  0  0  0  0  0  0  0  0  0
   -8.8411    3.5378   -7.4352 C   0  0  0  0  0  0  0  0  0  0  0  0
  1  2  1  0
  2  3  1  0
  3  4  1  0
  4  5  1  0
  5  6  1  0
  6  7  1  0
  7  8  1  0
  8  9  1  0
  9 10  1  1
 10 11  1  0
 11 12  1  0
 12 13  1  0
 13 14  1  0
 14 15  2  0
 15 16  1  0
 16 17  1  0
 17 18  1  0
 18 19  1  0
 19 20  1  0
 20 21  1  0
  9  4  1  0
 17 13  2  0
 21 16  1  0
M  END
>  <inchikey>  (353) 
FXWZJNDKYPKVCU-UHFFFAOYSA-N

>  <alias>  (353) 
CCCN1CCCC[C@@H]1CNCc1cnn2c1CNCC2

>  <tags>  (353) 
{'openbind_xx01zvns2b_c1_knitwork_pure', 'fragmenstein_placed'}

>  <HIPPO Pose ID>  (353) 
49137

>  <ref_pdb>  (353) 
35

>  <smiles>  (353) 
C4755-P48

>  <fragmenstein_runtime>  (353) 
4.073967

>  <fragmenstein_outcome>  (353) 
acceptable

>  <fragmenstein_mode>  (353) 
expansion

>  <fragmenstein_error>  (353) 


>  <HIPPO Compound ID>  (353) 
4755

>  <Energy>  (353) 
29.44422

>  <scratch_subdir>  (353) 
/opt/xchem-fragalysis-2/maxwin/BulkDock/SCRATCH/511032/C4755-P48

$$$$
Clc1cccc2nc(-c3cscn3)[nH]c12
     RDKit          3D

 15 17  0  0  0  0  0  0  0  0999 V2000
   -9.9709   10.9777  -27.2282 Cl  0  0  0  0  0  0  0  0  0  0  0  0
   -9.5135    9.3669  -27.5659 C   0  0  0  0  0  0  0  0  0  0  0  0
  -10.2835    8.4808  -28.3205 C   0  0  0  0  0  0  0  0  0  0  0  0
   -9.8552    7.1668  -28.5367 C   0  0  0  0  0  0  0  0  0  0  0  0
   -8.6554    6.7016  -27.9816 C   0  0  0  0  0  0  0  0  0  0  0  0
   -7.8903    7.5850  -27.2088 C   0  0  0  0  0  0  0  0  0  0  0  0
   -6.7506    7.3654  -26.4826 N   0  0  0  0  0  0  0  0  0  0  0  0
   -6.5511    8.4824  -25.8192 C   0  0  0  0  0  0  0  0  0  0  0  0
   -5.6424    8.6492  -24.5865 C   0  0  0  0  0  0  0  0  0  0  0  0
   -4.9819    7.5803  -24.0241 C   0  0  0  0  0  0  0  0  0  0  0  0
   -4.2350    8.0822  -22.5711 S   0  0  0  0  0  0  0  0  0  0  0  0
   -4.8172    9.6732  -22.8411 C   0  0  0  0  0  0  0  0  0  0  0  0
   -5.5502    9.8566  -23.9181 N   0  0  0  0  0  0  0  0  0  0  0  0
   -7.3667    9.4800  -26.2604 N   0  0  0  0  0  0  0  0  0  0  0  0
   -8.3226    8.8926  -27.0438 C   0  0  0  0  0  0  0  0  0  0  0  0
  1  2  1  0
  2  3  2  0
  3  4  1  0
  4  5  2  0
  5  6  1  0
  6  7  1  0
  7  8  2  0
  8  9  1  0
  9 10  2  0
 10 11  1  0
 11 12  1  0
 12 13  2  0
  8 14  1  0
 14 15  1  0
 15  2  1  0
 15  6  2  0
 13  9  1  0
M  END
>  <inchikey>  (354) 
YJBZXDBMOFYXOW-UHFFFAOYSA-N

>  <alias>  (354) 
Clc1cccc2nc(-c3cscn3)[nH]c12

>  <tags>  (354) 
{'openbind_xx01zvns2b_c1_knitwork_pure', 'fragmenstein_placed'}

>  <HIPPO Pose ID>  (354) 
49517

>  <ref_pdb>  (354) 
35

>  <smiles>  (354) 
C4213-P50

>  <fragmenstein_runtime>  (354) 
1.161158

>  <fragmenstein_outcome>  (354) 
acceptable

>  <fragmenstein_mode>  (354) 
expansion

>  <fragmenstein_error>  (354) 


>  <HIPPO Compound ID>  (354) 
13921

>  <Energy>  (354) 
8.622104

>  <scratch_subdir>  (354) 
/opt/xchem-fragalysis-2/maxwin/BulkDock/SCRATCH/511032/C4213-P50

$$$$
O[C@H](CN1CCOCC1)Cn1c(-c2cscn2)nc2ccccc21
     RDKit          3D

 24 27  0  0  0  0  0  0  0  0999 V2000
   -9.8398   11.9715  -27.8262 O   0  0  0  0  0  0  0  0  0  0  0  0
   -8.4360   11.8810  -27.5272 C   0  0  2  0  0  0  0  0  0  0  0  0
   -7.6140   11.4902  -28.7821 C   0  0  0  0  0  0  0  0  0  0  0  0
   -7.4470   12.5927  -29.7563 N   0  0  0  0  0  0  0  0  0  0  0  0
   -8.7366   13.0136  -30.3516 C   0  0  0  0  0  0  0  0  0  0  0  0
   -8.5496   13.6840  -31.7219 C   0  0  0  0  0  0  0  0  0  0  0  0
   -7.9982   12.7963  -32.7036 O   0  0  0  0  0  0  0  0  0  0  0  0
   -7.1668   11.7768  -32.1325 C   0  0  0  0  0  0  0  0  0  0  0  0
   -6.4895   12.2196  -30.8260 C   0  0  0  0  0  0  0  0  0  0  0  0
   -8.1883   10.9667  -26.3131 C   0  0  0  0  0  0  0  0  0  0  0  0
   -7.9943    9.5592  -26.5847 N   0  0  0  0  0  0  0  0  0  0  0  0
   -6.9639    8.7591  -26.1452 C   0  0  0  0  0  0  0  0  0  0  0  0
   -6.0063    8.9980  -24.9331 C   0  0  0  0  0  0  0  0  0  0  0  0
   -5.1964    7.9722  -24.4846 C   0  0  0  0  0  0  0  0  0  0  0  0
   -4.4297    8.4339  -23.0296 S   0  0  0  0  0  0  0  0  0  0  0  0
   -5.1886    9.9660  -23.1456 C   0  0  0  0  0  0  0  0  0  0  0  0
   -5.9976   10.1490  -24.1682 N   0  0  0  0  0  0  0  0  0  0  0  0
   -6.9444    7.6234  -26.8114 N   0  0  0  0  0  0  0  0  0  0  0  0
   -8.1380    7.5686  -27.4674 C   0  0  0  0  0  0  0  0  0  0  0  0
   -8.6879    6.5257  -28.2208 C   0  0  0  0  0  0  0  0  0  0  0  0
   -9.9779    6.6812  -28.7338 C   0  0  0  0  0  0  0  0  0  0  0  0
  -10.7144    7.8350  -28.4715 C   0  0  0  0  0  0  0  0  0  0  0  0
  -10.1748    8.8841  -27.7231 C   0  0  0  0  0  0  0  0  0  0  0  0
   -8.8651    8.7370  -27.2652 C   0  0  0  0  0  0  0  0  0  0  0  0
  2  1  1  6
  2  3  1  0
  3  4  1  0
  4  5  1  0
  5  6  1  0
  6  7  1  0
  7  8  1  0
  8  9  1  0
  2 10  1  0
 10 11  1  0
 11 12  1  0
 12 13  1  0
 13 14  2  0
 14 15  1  0
 15 16  1  0
 16 17  2  0
 12 18  2  0
 18 19  1  0
 19 20  2  0
 20 21  1  0
 21 22  2  0
 22 23  1  0
 23 24  2  0
  9  4  1  0
 24 11  1  0
 17 13  1  0
 24 19  1  0
M  END
>  <inchikey>  (355) 
FDBANKMXTCJRQY-UHFFFAOYSA-N

>  <alias>  (355) 
O[C@H](CN1CCOCC1)Cn1c(-c2cscn2)nc2ccccc21

>  <tags>  (355) 
{'openbind_xx01zvns2b_c1_knitwork_pure', 'fragmenstein_placed'}

>  <HIPPO Pose ID>  (355) 
49519

>  <ref_pdb>  (355) 
35

>  <smiles>  (355) 
C4222-P50

>  <fragmenstein_runtime>  (355) 
2.042772

>  <fragmenstein_outcome>  (355) 
acceptable

>  <fragmenstein_mode>  (355) 
expansion

>  <fragmenstein_error>  (355) 


>  <HIPPO Compound ID>  (355) 
5682

>  <Energy>  (355) 
122.00253

>  <scratch_subdir>  (355) 
/opt/xchem-fragalysis-2/maxwin/BulkDock/SCRATCH/511032/C4222-P50

$$$$
CC(C)Oc1cc(CNC2=N[C@H]3CCCC[C@@H]3N2)ccn1
     RDKit          3D

 21 23  0  0  0  0  0  0  0  0999 V2000
   -3.1822    5.5163  -19.6395 C   0  0  0  0  0  0  0  0  0  0  0  0
   -3.9643    5.1330  -18.3859 C   0  0  0  0  0  0  0  0  0  0  0  0
   -3.2045    5.5631  -17.1262 C   0  0  0  0  0  0  0  0  0  0  0  0
   -5.2377    5.7812  -18.4799 O   0  0  0  0  0  0  0  0  0  0  0  0
   -6.2167    5.1272  -17.7742 C   0  0  0  0  0  0  0  0  0  0  0  0
   -6.3144    5.3376  -16.4128 C   0  0  0  0  0  0  0  0  0  0  0  0
   -7.4013    4.8153  -15.7083 C   0  0  0  0  0  0  0  0  0  0  0  0
   -7.4199    5.0710  -14.2307 C   0  0  0  0  0  0  0  0  0  0  0  0
   -8.4376    4.3623  -13.4762 N   0  0  0  0  0  0  0  0  0  0  0  0
   -8.3370    4.4648  -12.1292 C   0  0  0  0  0  0  0  0  0  0  0  0
   -8.2478    3.4651  -11.2932 N   0  0  0  0  0  0  0  0  0  0  0  0
   -8.2636    4.1758   -9.9900 C   0  0  1  0  0  0  0  0  0  0  0  0
   -7.4646    3.5697   -8.8660 C   0  0  0  0  0  0  0  0  0  0  0  0
   -7.0995    4.6561   -7.8297 C   0  0  0  0  0  0  0  0  0  0  0  0
   -8.0047    5.9016   -7.8515 C   0  0  0  0  0  0  0  0  0  0  0  0
   -8.1145    6.5589   -9.2417 C   0  0  0  0  0  0  0  0  0  0  0  0
   -7.7138    5.5663  -10.3055 C   0  0  2  0  0  0  0  0  0  0  0  0
   -8.2154    5.7468  -11.6432 N   0  0  0  0  0  0  0  0  0  0  0  0
   -8.3915    4.1658  -16.4373 C   0  0  0  0  0  0  0  0  0  0  0  0
   -8.2127    4.0082  -17.8059 C   0  0  0  0  0  0  0  0  0  0  0  0
   -7.1401    4.4691  -18.4881 N   0  0  0  0  0  0  0  0  0  0  0  0
  1  2  1  0
  2  3  1  0
  2  4  1  0
  4  5  1  0
  5  6  2  0
  6  7  1  0
  7  8  1  0
  8  9  1  0
  9 10  1  0
 10 11  2  0
 11 12  1  0
 12 13  1  1
 13 14  1  0
 14 15  1  0
 15 16  1  0
 17 16  1  1
 17 18  1  0
  7 19  2  0
 19 20  1  0
 20 21  2  0
 21  5  1  0
 18 10  1  0
 17 12  1  0
M  END
>  <inchikey>  (356) 
VQYNNUDDXJFSLS-UHFFFAOYSA-N

>  <alias>  (356) 
CC(C)Oc1cc(CNC2=N[C@H]3CCCC[C@@H]3N2)ccn1

>  <tags>  (356) 
{'openbind_xx01zvns2b_c1_knitwork_pure', 'fragmenstein_placed'}

>  <HIPPO Pose ID>  (356) 
49681

>  <ref_pdb>  (356) 
35

>  <smiles>  (356) 
C2372-P71

>  <fragmenstein_runtime>  (356) 
3.501279

>  <fragmenstein_outcome>  (356) 
acceptable

>  <fragmenstein_mode>  (356) 
expansion

>  <fragmenstein_error>  (356) 


>  <HIPPO Compound ID>  (356) 
453

>  <Energy>  (356) 
-56.749654

>  <scratch_subdir>  (356) 
/opt/xchem-fragalysis-2/maxwin/BulkDock/SCRATCH/511032/C2372-P71

$$$$
Fc1ccc(CNC2=N[C@H]3CCCC[C@H]3N2)nc1
     RDKit          3D

 18 20  0  0  0  0  0  0  0  0999 V2000
   -8.3172    3.9954  -19.6791 F   0  0  0  0  0  0  0  0  0  0  0  0
   -8.0633    4.3108  -18.4087 C   0  0  0  0  0  0  0  0  0  0  0  0
   -9.0760    4.2257  -17.4746 C   0  0  0  0  0  0  0  0  0  0  0  0
   -8.7697    4.4673  -16.1435 C   0  0  0  0  0  0  0  0  0  0  0  0
   -7.4573    4.7876  -15.7862 C   0  0  0  0  0  0  0  0  0  0  0  0
   -7.1072    5.0694  -14.3409 C   0  0  0  0  0  0  0  0  0  0  0  0
   -7.8736    4.2563  -13.4270 N   0  0  0  0  0  0  0  0  0  0  0  0
   -8.0260    4.4852  -12.1141 C   0  0  0  0  0  0  0  0  0  0  0  0
   -8.1183    3.5272  -11.2433 N   0  0  0  0  0  0  0  0  0  0  0  0
   -8.3664    4.2269   -9.9575 C   0  0  1  0  0  0  0  0  0  0  0  0
   -7.4443    3.6957   -8.8721 C   0  0  0  0  0  0  0  0  0  0  0  0
   -7.3873    4.6927   -7.7233 C   0  0  0  0  0  0  0  0  0  0  0  0
   -6.8137    6.0478   -8.1422 C   0  0  0  0  0  0  0  0  0  0  0  0
   -6.8883    6.2982   -9.6459 C   0  0  0  0  0  0  0  0  0  0  0  0
   -8.1783    5.7412  -10.2395 C   0  0  1  0  0  0  0  0  0  0  0  0
   -8.1373    5.7671  -11.6854 N   0  0  0  0  0  0  0  0  0  0  0  0
   -6.4646    4.9289  -16.7062 N   0  0  0  0  0  0  0  0  0  0  0  0
   -6.7925    4.6730  -17.9999 C   0  0  0  0  0  0  0  0  0  0  0  0
  1  2  1  0
  2  3  2  0
  3  4  1  0
  4  5  2  0
  5  6  1  0
  6  7  1  0
  7  8  1  0
  8  9  2  0
  9 10  1  0
 10 11  1  1
 11 12  1  0
 12 13  1  0
 13 14  1  0
 15 14  1  1
 15 16  1  0
  5 17  1  0
 17 18  2  0
 18  2  1  0
 16  8  1  0
 15 10  1  0
M  END
>  <inchikey>  (357) 
CDUQBKWRRNNQDG-UHFFFAOYSA-N

>  <alias>  (357) 
Fc1ccc(CNC2=N[C@H]3CCCC[C@H]3N2)nc1

>  <tags>  (357) 
{'openbind_xx01zvns2b_c1_knitwork_pure', 'fragmenstein_placed'}

>  <HIPPO Pose ID>  (357) 
49683

>  <ref_pdb>  (357) 
35

>  <smiles>  (357) 
C2376-P2

>  <fragmenstein_runtime>  (357) 
3.651229

>  <fragmenstein_outcome>  (357) 
acceptable

>  <fragmenstein_mode>  (357) 
expansion

>  <fragmenstein_error>  (357) 


>  <HIPPO Compound ID>  (357) 
9337

>  <Energy>  (357) 
-34.443603

>  <scratch_subdir>  (357) 
/opt/xchem-fragalysis-2/maxwin/BulkDock/SCRATCH/511032/C2376-P2

$$$$
O=S(=O)(CCCn1cccn1)N1CCC[C@@H]1c1ncccn1
     RDKit          3D

 22 24  0  0  0  0  0  0  0  0999 V2000
   -5.8190    6.8826  -16.5278 O   0  0  0  0  0  0  0  0  0  0  0  0
   -5.5153    5.5286  -16.9344 S   0  0  0  0  0  0  0  0  0  0  0  0
   -4.6411    5.3180  -18.0721 O   0  0  0  0  0  0  0  0  0  0  0  0
   -4.8086    4.6334  -15.5654 C   0  0  0  0  0  0  0  0  0  0  0  0
   -3.2811    4.6770  -15.5274 C   0  0  0  0  0  0  0  0  0  0  0  0
   -2.6993    6.0577  -15.2283 C   0  0  0  0  0  0  0  0  0  0  0  0
   -3.3355    6.6754  -14.0819 N   0  0  0  0  0  0  0  0  0  0  0  0
   -4.1105    7.7952  -14.1134 C   0  0  0  0  0  0  0  0  0  0  0  0
   -4.8429    7.7717  -12.9533 C   0  0  0  0  0  0  0  0  0  0  0  0
   -4.3806    6.6423  -12.2563 C   0  0  0  0  0  0  0  0  0  0  0  0
   -3.4187    5.9993  -12.9190 N   0  0  0  0  0  0  0  0  0  0  0  0
   -6.9305    4.7312  -17.2414 N   0  0  0  0  0  0  0  0  0  0  0  0
   -7.5991    4.9940  -18.5304 C   0  0  0  0  0  0  0  0  0  0  0  0
   -8.9607    4.3367  -18.3937 C   0  0  0  0  0  0  0  0  0  0  0  0
   -9.2922    4.4920  -16.9225 C   0  0  0  0  0  0  0  0  0  0  0  0
   -7.9478    4.3776  -16.2134 C   0  0  2  0  0  0  0  0  0  0  0  0
   -7.9590    4.9830  -14.8198 C   0  0  0  0  0  0  0  0  0  0  0  0
   -8.2287    6.2886  -14.6447 N   0  0  0  0  0  0  0  0  0  0  0  0
   -8.2783    6.7232  -13.3695 C   0  0  0  0  0  0  0  0  0  0  0  0
   -8.0865    5.9173  -12.2717 C   0  0  0  0  0  0  0  0  0  0  0  0
   -7.8193    4.6029  -12.5486 C   0  0  0  0  0  0  0  0  0  0  0  0
   -7.7336    4.1257  -13.8006 N   0  0  0  0  0  0  0  0  0  0  0  0
  1  2  2  0
  2  3  2  0
  2  4  1  0
  4  5  1  0
  5  6  1  0
  6  7  1  0
  7  8  1  0
  8  9  2  0
  9 10  1  0
 10 11  2  0
  2 12  1  0
 12 13  1  0
 13 14  1  0
 14 15  1  0
 15 16  1  0
 16 17  1  1
 17 18  2  0
 18 19  1  0
 19 20  2  0
 20 21  1  0
 21 22  2  0
 11  7  1  0
 16 12  1  0
 22 17  1  0
M  END
>  <inchikey>  (358) 
XYQPQJVNLBXJRI-UHFFFAOYSA-N

>  <alias>  (358) 
O=S(=O)(CCCn1cccn1)N1CCC[C@@H]1c1ncccn1

>  <tags>  (358) 
{'openbind_xx01zvns2b_c1_knitwork_pure', 'fragmenstein_placed'}

>  <HIPPO Pose ID>  (358) 
49724

>  <ref_pdb>  (358) 
35

>  <smiles>  (358) 
C6776-P52

>  <fragmenstein_runtime>  (358) 
55.591682

>  <fragmenstein_outcome>  (358) 
acceptable

>  <fragmenstein_mode>  (358) 
expansion

>  <fragmenstein_error>  (358) 


>  <HIPPO Compound ID>  (358) 
13206

>  <Energy>  (358) 
-35.081372

>  <scratch_subdir>  (358) 
/opt/xchem-fragalysis-2/maxwin/BulkDock/SCRATCH/511032/C6776-P52

$$$$
COC(=O)Cc1nccn1[C@@H]1CCCNC1
     RDKit          3D

 16 17  0  0  0  0  0  0  0  0999 V2000
   -6.1988    2.2690  -12.1331 C   0  0  0  0  0  0  0  0  0  0  0  0
   -7.1186    3.0849  -12.8606 O   0  0  0  0  0  0  0  0  0  0  0  0
   -6.6256    3.6059  -14.0231 C   0  0  0  0  0  0  0  0  0  0  0  0
   -5.4948    3.3862  -14.4375 O   0  0  0  0  0  0  0  0  0  0  0  0
   -7.6323    4.5479  -14.6313 C   0  0  0  0  0  0  0  0  0  0  0  0
   -7.7765    4.5016  -16.1209 C   0  0  0  0  0  0  0  0  0  0  0  0
   -8.9531    4.2536  -16.6764 N   0  0  0  0  0  0  0  0  0  0  0  0
   -8.8113    4.4656  -18.0121 C   0  0  0  0  0  0  0  0  0  0  0  0
   -7.5231    4.8298  -18.2977 C   0  0  0  0  0  0  0  0  0  0  0  0
   -6.8450    4.8397  -17.1010 N   0  0  0  0  0  0  0  0  0  0  0  0
   -5.3964    5.0043  -16.9677 C   0  0  2  0  0  0  0  0  0  0  0  0
   -4.9473    6.0808  -15.9722 C   0  0  0  0  0  0  0  0  0  0  0  0
   -3.4341    5.9903  -15.7240 C   0  0  0  0  0  0  0  0  0  0  0  0
   -2.6747    5.2826  -16.8448 C   0  0  0  0  0  0  0  0  0  0  0  0
   -3.1949    5.6496  -18.1577 N   0  0  0  0  0  0  0  0  0  0  0  0
   -4.6245    5.2751  -18.2997 C   0  0  0  0  0  0  0  0  0  0  0  0
  1  2  1  0
  2  3  1  0
  3  4  2  0
  3  5  1  0
  5  6  1  0
  6  7  2  0
  7  8  1  0
  8  9  2  0
  9 10  1  0
 11 10  1  6
 11 12  1  0
 12 13  1  0
 13 14  1  0
 14 15  1  0
 15 16  1  0
 10  6  1  0
 16 11  1  0
M  END
>  <inchikey>  (359) 
AMVABLYBMIDGRH-UHFFFAOYSA-N

>  <alias>  (359) 
COC(=O)Cc1nccn1[C@@H]1CCCNC1

>  <tags>  (359) 
{'openbind_xx01zvns2b_c1_knitwork_pure', 'fragmenstein_placed'}

>  <HIPPO Pose ID>  (359) 
49970

>  <ref_pdb>  (359) 
35

>  <smiles>  (359) 
C355-P11

>  <fragmenstein_runtime>  (359) 
2.652541

>  <fragmenstein_outcome>  (359) 
acceptable

>  <fragmenstein_mode>  (359) 
expansion

>  <fragmenstein_error>  (359) 


>  <HIPPO Compound ID>  (359) 
355

>  <Energy>  (359) 
38.629603

>  <scratch_subdir>  (359) 
/opt/xchem-fragalysis-2/maxwin/BulkDock/SCRATCH/511032/C355-P11

$$$$
O=c1[nH]c2cccc([C@H]3CCCNC3)c2[nH]1
     RDKit          3D

 16 18  0  0  0  0  0  0  0  0999 V2000
   -6.3816    3.6618  -21.1192 O   0  0  0  0  0  0  0  0  0  0  0  0
   -6.7423    3.9244  -19.9831 C   0  0  0  0  0  0  0  0  0  0  0  0
   -7.9430    3.5876  -19.3706 N   0  0  0  0  0  0  0  0  0  0  0  0
   -7.9099    4.0360  -18.0571 C   0  0  0  0  0  0  0  0  0  0  0  0
   -8.8720    3.9066  -17.0894 C   0  0  0  0  0  0  0  0  0  0  0  0
   -8.5526    4.3984  -15.8276 C   0  0  0  0  0  0  0  0  0  0  0  0
   -7.3143    5.0369  -15.5922 C   0  0  0  0  0  0  0  0  0  0  0  0
   -6.3320    5.1953  -16.6025 C   0  0  0  0  0  0  0  0  0  0  0  0
   -5.0552    5.9626  -16.2888 C   0  0  1  0  0  0  0  0  0  0  0  0
   -4.3419    5.4270  -15.0239 C   0  0  0  0  0  0  0  0  0  0  0  0
   -2.8964    5.0306  -15.2952 C   0  0  0  0  0  0  0  0  0  0  0  0
   -2.1095    6.1472  -15.9792 C   0  0  0  0  0  0  0  0  0  0  0  0
   -2.8434    6.8549  -17.0282 N   0  0  0  0  0  0  0  0  0  0  0  0
   -4.0439    6.1354  -17.4460 C   0  0  0  0  0  0  0  0  0  0  0  0
   -6.6766    4.6633  -17.8331 C   0  0  0  0  0  0  0  0  0  0  0  0
   -5.9814    4.6041  -19.0391 N   0  0  0  0  0  0  0  0  0  0  0  0
  1  2  2  0
  2  3  1  0
  3  4  1  0
  4  5  2  0
  5  6  1  0
  6  7  2  0
  7  8  1  0
  9  8  1  6
  9 10  1  0
 10 11  1  0
 11 12  1  0
 12 13  1  0
 13 14  1  0
  8 15  2  0
 15 16  1  0
 16  2  1  0
 15  4  1  0
 14  9  1  0
M  END
>  <inchikey>  (360) 
UDDGVTNDSLUZRO-UHFFFAOYSA-N

>  <alias>  (360) 
O=c1[nH]c2cccc([C@H]3CCCNC3)c2[nH]1

>  <tags>  (360) 
{'openbind_xx01zvns2b_c1_knitwork_pure', 'fragmenstein_placed'}

>  <HIPPO Pose ID>  (360) 
49995

>  <ref_pdb>  (360) 
35

>  <smiles>  (360) 
C7806-P268

>  <fragmenstein_runtime>  (360) 
1.324202

>  <fragmenstein_outcome>  (360) 
acceptable

>  <fragmenstein_mode>  (360) 
expansion

>  <fragmenstein_error>  (360) 


>  <HIPPO Compound ID>  (360) 
3418

>  <Energy>  (360) 
-2.349022

>  <scratch_subdir>  (360) 
/opt/xchem-fragalysis-2/maxwin/BulkDock/SCRATCH/511032/C7806-P268

$$$$
COc1cccc2c1[nH]c(=O)n2[C@H]1CCCNC1
     RDKit          3D

 18 20  0  0  0  0  0  0  0  0999 V2000
  -10.7755    4.4618  -18.1635 C   0  0  0  0  0  0  0  0  0  0  0  0
   -9.9594    3.3732  -17.7369 O   0  0  0  0  0  0  0  0  0  0  0  0
   -8.8972    3.8749  -17.0604 C   0  0  0  0  0  0  0  0  0  0  0  0
   -8.9633    4.0806  -15.6851 C   0  0  0  0  0  0  0  0  0  0  0  0
   -7.9208    4.7092  -14.9978 C   0  0  0  0  0  0  0  0  0  0  0  0
   -6.7884    5.1306  -15.6889 C   0  0  0  0  0  0  0  0  0  0  0  0
   -6.7067    4.8459  -17.0417 C   0  0  0  0  0  0  0  0  0  0  0  0
   -7.7442    4.2188  -17.7074 C   0  0  0  0  0  0  0  0  0  0  0  0
   -7.4085    4.0823  -19.0435 N   0  0  0  0  0  0  0  0  0  0  0  0
   -6.1397    4.6314  -19.2517 C   0  0  0  0  0  0  0  0  0  0  0  0
   -5.5669    4.6694  -20.3296 O   0  0  0  0  0  0  0  0  0  0  0  0
   -5.6926    5.1036  -17.9831 N   0  0  0  0  0  0  0  0  0  0  0  0
   -4.5425    5.9474  -17.6916 C   0  0  1  0  0  0  0  0  0  0  0  0
   -3.7761    5.4981  -16.4261 C   0  0  0  0  0  0  0  0  0  0  0  0
   -2.2945    5.3116  -16.6745 C   0  0  0  0  0  0  0  0  0  0  0  0
   -1.6906    6.5247  -17.3621 C   0  0  0  0  0  0  0  0  0  0  0  0
   -2.4234    6.9778  -18.5430 N   0  0  0  0  0  0  0  0  0  0  0  0
   -3.5761    6.1322  -18.8791 C   0  0  0  0  0  0  0  0  0  0  0  0
  1  2  1  0
  2  3  1  0
  3  4  2  0
  4  5  1  0
  5  6  2  0
  6  7  1  0
  7  8  2  0
  8  9  1  0
  9 10  1  0
 10 11  2  0
 10 12  1  0
 13 12  1  6
 13 14  1  0
 14 15  1  0
 15 16  1  0
 16 17  1  0
 17 18  1  0
  8  3  1  0
 18 13  1  0
 12  7  1  0
M  END
>  <inchikey>  (361) 
WYQWWTFWWUNJRG-UHFFFAOYSA-N

>  <alias>  (361) 
COc1cccc2c1[nH]c(=O)n2[C@H]1CCCNC1

>  <tags>  (361) 
{'openbind_xx01zvns2b_c1_knitwork_pure', 'fragmenstein_placed'}

>  <HIPPO Pose ID>  (361) 
49996

>  <ref_pdb>  (361) 
35

>  <smiles>  (361) 
C7808-P268

>  <fragmenstein_runtime>  (361) 
1.966589

>  <fragmenstein_outcome>  (361) 
acceptable

>  <fragmenstein_mode>  (361) 
expansion

>  <fragmenstein_error>  (361) 


>  <HIPPO Compound ID>  (361) 
9997

>  <Energy>  (361) 
29.828619

>  <scratch_subdir>  (361) 
/opt/xchem-fragalysis-2/maxwin/BulkDock/SCRATCH/511032/C7808-P268

$$$$
CN1CCOC[C@@H]1CNC(=O)Cc1c[nH][nH]c1=O
     RDKit          3D

 18 19  0  0  0  0  0  0  0  0999 V2000
   -6.6014    6.4233  -16.2917 C   0  0  0  0  0  0  0  0  0  0  0  0
   -6.6334    5.0116  -16.5945 N   0  0  0  0  0  0  0  0  0  0  0  0
   -6.9303    4.7372  -18.0251 C   0  0  0  0  0  0  0  0  0  0  0  0
   -8.4108    4.6539  -18.4427 C   0  0  0  0  0  0  0  0  0  0  0  0
   -9.2107    3.9057  -17.5258 O   0  0  0  0  0  0  0  0  0  0  0  0
   -9.0457    4.4129  -16.2019 C   0  0  0  0  0  0  0  0  0  0  0  0
   -7.5911    4.2576  -15.7368 C   0  0  2  0  0  0  0  0  0  0  0  0
   -7.4572    4.4709  -14.2131 C   0  0  0  0  0  0  0  0  0  0  0  0
   -6.2038    3.9423  -13.7258 N   0  0  0  0  0  0  0  0  0  0  0  0
   -5.8292    2.5085  -13.2490 C   0  0  0  0  0  0  0  0  0  0  0  0
   -6.4970    1.5595  -13.1058 O   0  0  0  0  0  0  0  0  0  0  0  0
   -4.3060    2.5071  -13.0149 C   0  0  0  0  0  0  0  0  0  0  0  0
   -3.8836    1.7220  -11.8347 C   0  0  0  0  0  0  0  0  0  0  0  0
   -4.5168    1.3129  -10.7285 C   0  0  0  0  0  0  0  0  0  0  0  0
   -3.7425    0.5439   -9.8956 N   0  0  0  0  0  0  0  0  0  0  0  0
   -2.5023    0.3968  -10.5382 N   0  0  0  0  0  0  0  0  0  0  0  0
   -2.5739    1.0230  -11.7741 C   0  0  0  0  0  0  0  0  0  0  0  0
   -1.7470    1.0000  -12.6730 O   0  0  0  0  0  0  0  0  0  0  0  0
  1  2  1  0
  2  3  1  0
  3  4  1  0
  4  5  1  0
  5  6  1  0
  6  7  1  0
  7  8  1  1
  8  9  1  0
  9 10  1  0
 10 11  2  0
 10 12  1  0
 12 13  1  0
 13 14  2  0
 14 15  1  0
 15 16  1  0
 16 17  1  0
 17 18  2  0
  7  2  1  0
 17 13  1  0
M  END
>  <inchikey>  (362) 
ABNPMJFOWPHJKI-UHFFFAOYSA-N

>  <alias>  (362) 
CN1CCOC[C@@H]1CNC(=O)Cc1c[nH][nH]c1=O

>  <tags>  (362) 
{'openbind_xx01zvns2b_c1_knitwork_pure', 'fragmenstein_placed'}

>  <HIPPO Pose ID>  (362) 
50216

>  <ref_pdb>  (362) 
35

>  <smiles>  (362) 
C8475-P35

>  <fragmenstein_runtime>  (362) 
2.142792

>  <fragmenstein_outcome>  (362) 
acceptable

>  <fragmenstein_mode>  (362) 
expansion

>  <fragmenstein_error>  (362) 


>  <HIPPO Compound ID>  (362) 
3381

>  <Energy>  (362) 
115.937851

>  <scratch_subdir>  (362) 
/opt/xchem-fragalysis-2/maxwin/BulkDock/SCRATCH/511032/C8475-P35

$$$$
c1ccc2[nH]c(N3CCC(NC4CCNCC4)CC3)nc2c1
     RDKit          3D

 22 25  0  0  0  0  0  0  0  0999 V2000
  -10.6550    8.1152  -28.0534 C   0  0  0  0  0  0  0  0  0  0  0  0
   -9.9816    7.0129  -28.5824 C   0  0  0  0  0  0  0  0  0  0  0  0
   -8.6209    6.8148  -28.3446 C   0  0  0  0  0  0  0  0  0  0  0  0
   -7.9809    7.7793  -27.5681 C   0  0  0  0  0  0  0  0  0  0  0  0
   -6.6887    7.8985  -27.1400 N   0  0  0  0  0  0  0  0  0  0  0  0
   -6.5837    9.0078  -26.3363 C   0  0  0  0  0  0  0  0  0  0  0  0
   -5.4169    9.3225  -25.6990 N   0  0  0  0  0  0  0  0  0  0  0  0
   -4.3938    8.3020  -25.4663 C   0  0  0  0  0  0  0  0  0  0  0  0
   -4.8163    7.4020  -24.3041 C   0  0  0  0  0  0  0  0  0  0  0  0
   -5.6173    8.1814  -23.2466 C   0  0  0  0  0  0  0  0  0  0  0  0
   -5.6186    7.4837  -21.9676 N   0  0  0  0  0  0  0  0  0  0  0  0
   -4.8444    7.9687  -20.8346 C   0  0  0  0  0  0  0  0  0  0  0  0
   -3.3356    7.7426  -20.9692 C   0  0  0  0  0  0  0  0  0  0  0  0
   -2.9356    6.3758  -20.4234 C   0  0  0  0  0  0  0  0  0  0  0  0
   -3.2357    6.2174  -18.9955 N   0  0  0  0  0  0  0  0  0  0  0  0
   -4.3292    7.0690  -18.5239 C   0  0  0  0  0  0  0  0  0  0  0  0
   -5.4074    7.2650  -19.5781 C   0  0  0  0  0  0  0  0  0  0  0  0
   -5.2633    9.6738  -23.2394 C   0  0  0  0  0  0  0  0  0  0  0  0
   -5.4972   10.3186  -24.6179 C   0  0  0  0  0  0  0  0  0  0  0  0
   -7.7385    9.6411  -26.2861 N   0  0  0  0  0  0  0  0  0  0  0  0
   -8.6162    8.8894  -27.0333 C   0  0  0  0  0  0  0  0  0  0  0  0
   -9.9852    9.0698  -27.2755 C   0  0  0  0  0  0  0  0  0  0  0  0
  1  2  2  0
  2  3  1  0
  3  4  2  0
  4  5  1  0
  5  6  1  0
  6  7  1  0
  7  8  1  0
  8  9  1  0
  9 10  1  0
 10 11  1  0
 11 12  1  0
 12 13  1  0
 13 14  1  0
 14 15  1  0
 15 16  1  0
 16 17  1  0
 10 18  1  0
 18 19  1  0
  6 20  2  0
 20 21  1  0
 21 22  2  0
 22  1  1  0
 21  4  1  0
 19  7  1  0
 17 12  1  0
M  END
>  <inchikey>  (363) 
MRKDNYZTDSOBBH-UHFFFAOYSA-N

>  <alias>  (363) 
c1ccc2[nH]c(N3CCC(NC4CCNCC4)CC3)nc2c1

>  <tags>  (363) 
{'openbind_xx01zvns2b_c1_knitwork_pure', 'fragmenstein_placed'}

>  <HIPPO Pose ID>  (363) 
50296

>  <ref_pdb>  (363) 
35

>  <smiles>  (363) 
C1854-P50

>  <fragmenstein_runtime>  (363) 
5.999104

>  <fragmenstein_outcome>  (363) 
acceptable

>  <fragmenstein_mode>  (363) 
expansion

>  <fragmenstein_error>  (363) 


>  <HIPPO Compound ID>  (363) 
2977

>  <Energy>  (363) 
1.127128

>  <scratch_subdir>  (363) 
/opt/xchem-fragalysis-2/maxwin/BulkDock/SCRATCH/511032/C1854-P50

$$$$
Brc1cccc2cnc([C@H]3CCCNC3)nc12
     RDKit          3D

 17 19  0  0  0  0  0  0  0  0999 V2000
   -9.6721    4.0294  -17.6861 Br  0  0  0  0  0  0  0  0  0  0  0  0
   -7.8460    4.4854  -17.7759 C   0  0  0  0  0  0  0  0  0  0  0  0
   -7.2452    4.5325  -19.0325 C   0  0  0  0  0  0  0  0  0  0  0  0
   -5.9154    4.9131  -19.1475 C   0  0  0  0  0  0  0  0  0  0  0  0
   -5.1884    5.2085  -17.9998 C   0  0  0  0  0  0  0  0  0  0  0  0
   -5.8062    5.1279  -16.7349 C   0  0  0  0  0  0  0  0  0  0  0  0
   -5.1469    5.3783  -15.5404 C   0  0  0  0  0  0  0  0  0  0  0  0
   -5.7200    5.3019  -14.3226 N   0  0  0  0  0  0  0  0  0  0  0  0
   -7.0222    4.9706  -14.3058 C   0  0  0  0  0  0  0  0  0  0  0  0
   -7.7435    4.8050  -12.9935 C   0  0  1  0  0  0  0  0  0  0  0  0
   -7.5342    3.3997  -12.4263 C   0  0  0  0  0  0  0  0  0  0  0  0
   -8.2621    3.2613  -11.0939 C   0  0  0  0  0  0  0  0  0  0  0  0
   -7.9075    4.3904  -10.1293 C   0  0  0  0  0  0  0  0  0  0  0  0
   -8.0902    5.7238  -10.7132 N   0  0  0  0  0  0  0  0  0  0  0  0
   -7.3349    5.8649  -11.9657 C   0  0  0  0  0  0  0  0  0  0  0  0
   -7.7501    4.7350  -15.4051 N   0  0  0  0  0  0  0  0  0  0  0  0
   -7.1505    4.7799  -16.6064 C   0  0  0  0  0  0  0  0  0  0  0  0
  1  2  1  0
  2  3  2  0
  3  4  1  0
  4  5  2  0
  5  6  1  0
  6  7  2  0
  7  8  1  0
  8  9  2  0
 10  9  1  6
 10 11  1  0
 11 12  1  0
 12 13  1  0
 13 14  1  0
 14 15  1  0
  9 16  1  0
 16 17  2  0
 17  2  1  0
 17  6  1  0
 15 10  1  0
M  END
>  <inchikey>  (364) 
MTZYJQJFFHMGKZ-UHFFFAOYSA-N

>  <alias>  (364) 
Brc1cccc2cnc([C@H]3CCCNC3)nc12

>  <tags>  (364) 
{'openbind_xx01zvns2b_c1_knitwork_pure', 'fragmenstein_placed'}

>  <HIPPO Pose ID>  (364) 
50421

>  <ref_pdb>  (364) 
35

>  <smiles>  (364) 
C9047-P95

>  <fragmenstein_runtime>  (364) 
0.910472

>  <fragmenstein_outcome>  (364) 
acceptable

>  <fragmenstein_mode>  (364) 
expansion

>  <fragmenstein_error>  (364) 


>  <HIPPO Compound ID>  (364) 
5811

>  <Energy>  (364) 
35.498102

>  <scratch_subdir>  (364) 
/opt/xchem-fragalysis-2/maxwin/BulkDock/SCRATCH/511032/C9047-P95

$$$$
Brc1cccc2c([C@@H]3CCCNC3)ncnc12
     RDKit          3D

 17 19  0  0  0  0  0  0  0  0999 V2000
   -9.6479    4.0365  -17.4785 Br  0  0  0  0  0  0  0  0  0  0  0  0
   -7.8328    4.4896  -17.6822 C   0  0  0  0  0  0  0  0  0  0  0  0
   -7.3359    4.5289  -18.9825 C   0  0  0  0  0  0  0  0  0  0  0  0
   -6.0237    4.9034  -19.1983 C   0  0  0  0  0  0  0  0  0  0  0  0
   -5.2146    5.1997  -18.1080 C   0  0  0  0  0  0  0  0  0  0  0  0
   -5.7122    5.1293  -16.7786 C   0  0  0  0  0  0  0  0  0  0  0  0
   -4.9605    5.3814  -15.6134 C   0  0  0  0  0  0  0  0  0  0  0  0
   -3.4924    5.7737  -15.6745 C   0  0  2  0  0  0  0  0  0  0  0  0
   -2.6894    5.3168  -14.4395 C   0  0  0  0  0  0  0  0  0  0  0  0
   -1.2487    5.8192  -14.5200 C   0  0  0  0  0  0  0  0  0  0  0  0
   -1.2037    7.3300  -14.7428 C   0  0  0  0  0  0  0  0  0  0  0  0
   -1.9460    7.7257  -15.9421 N   0  0  0  0  0  0  0  0  0  0  0  0
   -3.3508    7.2972  -15.8507 C   0  0  0  0  0  0  0  0  0  0  0  0
   -5.4991    5.3309  -14.3728 N   0  0  0  0  0  0  0  0  0  0  0  0
   -6.7912    5.0091  -14.2937 C   0  0  0  0  0  0  0  0  0  0  0  0
   -7.5908    4.7589  -15.3252 N   0  0  0  0  0  0  0  0  0  0  0  0
   -7.0559    4.7887  -16.5614 C   0  0  0  0  0  0  0  0  0  0  0  0
  1  2  1  0
  2  3  2  0
  3  4  1  0
  4  5  2  0
  5  6  1  0
  6  7  2  0
  8  7  1  1
  8  9  1  0
  9 10  1  0
 10 11  1  0
 11 12  1  0
 12 13  1  0
  7 14  1  0
 14 15  2  0
 15 16  1  0
 16 17  2  0
 17  2  1  0
 17  6  1  0
 13  8  1  0
M  END
>  <inchikey>  (365) 
ZAWQQEOKCLNWBC-UHFFFAOYSA-N

>  <alias>  (365) 
Brc1cccc2c([C@@H]3CCCNC3)ncnc12

>  <tags>  (365) 
{'openbind_xx01zvns2b_c1_knitwork_pure', 'fragmenstein_placed'}

>  <HIPPO Pose ID>  (365) 
50422

>  <ref_pdb>  (365) 
35

>  <smiles>  (365) 
C9048-P95

>  <fragmenstein_runtime>  (365) 
0.80215

>  <fragmenstein_outcome>  (365) 
acceptable

>  <fragmenstein_mode>  (365) 
expansion

>  <fragmenstein_error>  (365) 


>  <HIPPO Compound ID>  (365) 
6960

>  <Energy>  (365) 
42.754216

>  <scratch_subdir>  (365) 
/opt/xchem-fragalysis-2/maxwin/BulkDock/SCRATCH/511032/C9048-P95

$$$$
Cc1nc([C@H]2CCCNC2)nc2c(F)cccc12
     RDKit          3D

 18 20  0  0  0  0  0  0  0  0999 V2000
   -3.8939    5.6332  -15.7153 C   0  0  0  0  0  0  0  0  0  0  0  0
   -5.3502    5.2813  -15.6266 C   0  0  0  0  0  0  0  0  0  0  0  0
   -5.8627    5.2331  -14.3743 N   0  0  0  0  0  0  0  0  0  0  0  0
   -7.1658    4.9248  -14.2616 C   0  0  0  0  0  0  0  0  0  0  0  0
   -7.8003    4.7873  -12.9040 C   0  0  1  0  0  0  0  0  0  0  0  0
   -7.5791    3.3859  -12.3328 C   0  0  0  0  0  0  0  0  0  0  0  0
   -8.2460    3.2743  -10.9666 C   0  0  0  0  0  0  0  0  0  0  0  0
   -7.8270    4.4094  -10.0350 C   0  0  0  0  0  0  0  0  0  0  0  0
   -8.0129    5.7398  -10.6252 N   0  0  0  0  0  0  0  0  0  0  0  0
   -7.3186    5.8524  -11.9161 C   0  0  0  0  0  0  0  0  0  0  0  0
   -7.9722    4.6867  -15.2991 N   0  0  0  0  0  0  0  0  0  0  0  0
   -7.4481    4.6988  -16.5269 C   0  0  0  0  0  0  0  0  0  0  0  0
   -8.2661    4.3977  -17.6034 C   0  0  0  0  0  0  0  0  0  0  0  0
   -9.5571    4.1215  -17.3695 F   0  0  0  0  0  0  0  0  0  0  0  0
   -7.8072    4.4046  -18.9151 C   0  0  0  0  0  0  0  0  0  0  0  0
   -6.4817    4.7314  -19.1714 C   0  0  0  0  0  0  0  0  0  0  0  0
   -5.6326    5.0369  -18.1100 C   0  0  0  0  0  0  0  0  0  0  0  0
   -6.1093    5.0134  -16.7744 C   0  0  0  0  0  0  0  0  0  0  0  0
  1  2  1  0
  2  3  2  0
  3  4  1  0
  5  4  1  6
  5  6  1  0
  6  7  1  0
  7  8  1  0
  8  9  1  0
  9 10  1  0
  4 11  2  0
 11 12  1  0
 12 13  2  0
 13 14  1  0
 13 15  1  0
 15 16  2  0
 16 17  1  0
 17 18  2  0
 18  2  1  0
 10  5  1  0
 18 12  1  0
M  END
>  <inchikey>  (366) 
AESTZCGBGNNVFW-UHFFFAOYSA-N

>  <alias>  (366) 
Cc1nc([C@H]2CCCNC2)nc2c(F)cccc12

>  <tags>  (366) 
{'openbind_xx01zvns2b_c1_knitwork_pure', 'fragmenstein_placed'}

>  <HIPPO Pose ID>  (366) 
50437

>  <ref_pdb>  (366) 
35

>  <smiles>  (366) 
C9069-P95

>  <fragmenstein_runtime>  (366) 
1.150597

>  <fragmenstein_outcome>  (366) 
acceptable

>  <fragmenstein_mode>  (366) 
expansion

>  <fragmenstein_error>  (366) 


>  <HIPPO Compound ID>  (366) 
7211

>  <Energy>  (366) 
40.363808

>  <scratch_subdir>  (366) 
/opt/xchem-fragalysis-2/maxwin/BulkDock/SCRATCH/511032/C9069-P95

$$$$
CCN[C@@H](c1c[nH]cn1)c1nccn1C
     RDKit          3D

 15 16  0  0  0  0  0  0  0  0999 V2000
   -4.1366    2.5887  -13.3710 C   0  0  0  0  0  0  0  0  0  0  0  0
   -5.6224    2.9039  -13.4154 C   0  0  0  0  0  0  0  0  0  0  0  0
   -5.9249    3.7726  -14.5590 N   0  0  0  0  0  0  0  0  0  0  0  0
   -7.3752    4.0945  -14.6001 C   0  0  1  0  0  0  0  0  0  0  0  0
   -7.6771    5.1410  -13.5515 C   0  0  0  0  0  0  0  0  0  0  0  0
   -8.3110    4.9210  -12.3409 C   0  0  0  0  0  0  0  0  0  0  0  0
   -8.2104    6.0913  -11.6514 N   0  0  0  0  0  0  0  0  0  0  0  0
   -7.5570    6.9839  -12.4501 C   0  0  0  0  0  0  0  0  0  0  0  0
   -7.2264    6.4525  -13.6055 N   0  0  0  0  0  0  0  0  0  0  0  0
   -7.9066    4.4116  -15.9853 C   0  0  0  0  0  0  0  0  0  0  0  0
   -9.1111    4.0460  -16.4123 N   0  0  0  0  0  0  0  0  0  0  0  0
   -9.1859    4.3988  -17.7292 C   0  0  0  0  0  0  0  0  0  0  0  0
   -8.0018    4.9469  -18.1395 C   0  0  0  0  0  0  0  0  0  0  0  0
   -7.2117    4.9937  -17.0244 N   0  0  0  0  0  0  0  0  0  0  0  0
   -5.8831    5.5476  -17.0241 C   0  0  0  0  0  0  0  0  0  0  0  0
  1  2  1  0
  2  3  1  0
  4  3  1  6
  4  5  1  0
  5  6  2  0
  6  7  1  0
  7  8  1  0
  8  9  2  0
  4 10  1  0
 10 11  2  0
 11 12  1  0
 12 13  2  0
 13 14  1  0
 14 15  1  0
  9  5  1  0
 14 10  1  0
M  END
>  <inchikey>  (367) 
KQLDKKGEVQLROA-UHFFFAOYSA-N

>  <alias>  (367) 
CCN[C@@H](c1c[nH]cn1)c1nccn1C

>  <tags>  (367) 
{'openbind_xx01zvns2b_c1_knitwork_pure', 'fragmenstein_placed'}

>  <HIPPO Pose ID>  (367) 
50598

>  <ref_pdb>  (367) 
35

>  <smiles>  (367) 
C9709-P35

>  <fragmenstein_runtime>  (367) 
1.012586

>  <fragmenstein_outcome>  (367) 
acceptable

>  <fragmenstein_mode>  (367) 
expansion

>  <fragmenstein_error>  (367) 


>  <HIPPO Compound ID>  (367) 
12880

>  <Energy>  (367) 
45.101158

>  <scratch_subdir>  (367) 
/opt/xchem-fragalysis-2/maxwin/BulkDock/SCRATCH/511032/C9709-P35

$$$$
CCC(=O)Nc1cnc[nH]1
     RDKit          3D

 10 10  0  0  0  0  0  0  0  0999 V2000
   -4.4156    6.9797  -20.4713 C   0  0  0  0  0  0  0  0  0  0  0  0
   -4.0202    5.8613  -19.5264 C   0  0  0  0  0  0  0  0  0  0  0  0
   -4.9427    5.7290  -18.3230 C   0  0  0  0  0  0  0  0  0  0  0  0
   -4.5859    5.9862  -17.2397 O   0  0  0  0  0  0  0  0  0  0  0  0
   -6.3013    5.1724  -18.8295 N   0  0  0  0  0  0  0  0  0  0  0  0
   -7.3948    4.7556  -18.1408 C   0  0  0  0  0  0  0  0  0  0  0  0
   -8.6197    4.2823  -18.5444 C   0  0  0  0  0  0  0  0  0  0  0  0
   -9.3843    3.9229  -17.4616 N   0  0  0  0  0  0  0  0  0  0  0  0
   -8.6461    4.2076  -16.4123 C   0  0  0  0  0  0  0  0  0  0  0  0
   -7.4308    4.7135  -16.7760 N   0  0  0  0  0  0  0  0  0  0  0  0
  1  2  1  0
  2  3  1  0
  3  4  2  0
  3  5  1  0
  5  6  1  0
  6  7  2  0
  7  8  1  0
  8  9  2  0
  9 10  1  0
 10  6  1  0
M  END
>  <inchikey>  (368) 
NAPZUNQCBHIRPL-UHFFFAOYSA-N

>  <alias>  (368) 
CCC(=O)Nc1cnc[nH]1

>  <tags>  (368) 
{'openbind_xx01zvns2b_c1_knitwork_pure', 'fragmenstein_placed'}

>  <HIPPO Pose ID>  (368) 
50682

>  <ref_pdb>  (368) 
35

>  <smiles>  (368) 
C9828-P35

>  <fragmenstein_runtime>  (368) 
0.82009

>  <fragmenstein_outcome>  (368) 
acceptable

>  <fragmenstein_mode>  (368) 
expansion

>  <fragmenstein_error>  (368) 


>  <HIPPO Compound ID>  (368) 
9828

>  <Energy>  (368) 
12.559319

>  <scratch_subdir>  (368) 
/opt/xchem-fragalysis-2/maxwin/BulkDock/SCRATCH/511032/C9828-P35

$$$$
CC(C)(C(=O)OCC(=O)c1c[nH]c2ccc(F)cc12)c1cscn1
     RDKit          3D

 24 26  0  0  0  0  0  0  0  0999 V2000
   -2.5728    6.6740  -21.3272 C   0  0  0  0  0  0  0  0  0  0  0  0
   -3.2967    8.0308  -21.2829 C   0  0  0  0  0  0  0  0  0  0  0  0
   -2.2953    9.1341  -20.8778 C   0  0  0  0  0  0  0  0  0  0  0  0
   -4.4901    8.1665  -20.2940 C   0  0  0  0  0  0  0  0  0  0  0  0
   -5.4255    8.9401  -20.5198 O   0  0  0  0  0  0  0  0  0  0  0  0
   -4.5010    7.5231  -19.1011 O   0  0  0  0  0  0  0  0  0  0  0  0
   -3.5018    6.6327  -18.6209 C   0  0  0  0  0  0  0  0  0  0  0  0
   -3.6182    6.1931  -17.1754 C   0  0  0  0  0  0  0  0  0  0  0  0
   -2.5940    5.8443  -16.5857 O   0  0  0  0  0  0  0  0  0  0  0  0
   -4.9190    6.0757  -16.5428 C   0  0  0  0  0  0  0  0  0  0  0  0
   -5.1764    6.3872  -15.2203 C   0  0  0  0  0  0  0  0  0  0  0  0
   -6.4781    6.0666  -14.9504 N   0  0  0  0  0  0  0  0  0  0  0  0
   -7.0699    5.5169  -16.0633 C   0  0  0  0  0  0  0  0  0  0  0  0
   -8.3546    4.9833  -16.2238 C   0  0  0  0  0  0  0  0  0  0  0  0
   -8.6804    4.4463  -17.4705 C   0  0  0  0  0  0  0  0  0  0  0  0
   -7.7466    4.4361  -18.4942 C   0  0  0  0  0  0  0  0  0  0  0  0
   -8.0473    3.8413  -19.6548 F   0  0  0  0  0  0  0  0  0  0  0  0
   -6.4747    4.9774  -18.3345 C   0  0  0  0  0  0  0  0  0  0  0  0
   -6.1216    5.5318  -17.0896 C   0  0  0  0  0  0  0  0  0  0  0  0
   -3.7710    8.2574  -22.7232 C   0  0  0  0  0  0  0  0  0  0  0  0
   -4.9852    7.9034  -23.2911 C   0  0  0  0  0  0  0  0  0  0  0  0
   -4.9830    8.2481  -24.9696 S   0  0  0  0  0  0  0  0  0  0  0  0
   -3.3681    8.7949  -24.8396 C   0  0  0  0  0  0  0  0  0  0  0  0
   -2.8364    8.7403  -23.6402 N   0  0  0  0  0  0  0  0  0  0  0  0
  1  2  1  0
  2  3  1  0
  2  4  1  0
  4  5  2  0
  4  6  1  0
  6  7  1  0
  7  8  1  0
  8  9  2  0
  8 10  1  0
 10 11  2  0
 11 12  1  0
 12 13  1  0
 13 14  2  0
 14 15  1  0
 15 16  2  0
 16 17  1  0
 16 18  1  0
 18 19  2  0
  2 20  1  0
 20 21  2  0
 21 22  1  0
 22 23  1  0
 23 24  2  0
 19 10  1  0
 24 20  1  0
 19 13  1  0
M  END
>  <inchikey>  (369) 
FKHNRGIZDDLBJT-UHFFFAOYSA-N

>  <alias>  (369) 
CC(C)(C(=O)OCC(=O)c1c[nH]c2ccc(F)cc12)c1cscn1

>  <tags>  (369) 
{'openbind_xx01zvns2b_c1_knitwork_pure', 'fragmenstein_placed'}

>  <HIPPO Pose ID>  (369) 
50837

>  <ref_pdb>  (369) 
35

>  <smiles>  (369) 
C10297-P5

>  <fragmenstein_runtime>  (369) 
2.947323

>  <fragmenstein_outcome>  (369) 
acceptable

>  <fragmenstein_mode>  (369) 
expansion

>  <fragmenstein_error>  (369) 


>  <HIPPO Compound ID>  (369) 
3955

>  <Energy>  (369) 
92.315238

>  <scratch_subdir>  (369) 
/opt/xchem-fragalysis-2/maxwin/BulkDock/SCRATCH/511032/C10297-P5

$$$$
Cc1cccc2[nH]cc(C(=O)COC(=O)C(C)(C)c3cscn3)c12
     RDKit          3D

 24 26  0  0  0  0  0  0  0  0999 V2000
   -5.9894    4.8076  -19.4541 C   0  0  0  0  0  0  0  0  0  0  0  0
   -6.7371    4.9965  -18.1687 C   0  0  0  0  0  0  0  0  0  0  0  0
   -8.0830    4.5736  -18.1595 C   0  0  0  0  0  0  0  0  0  0  0  0
   -8.8628    4.6387  -17.0156 C   0  0  0  0  0  0  0  0  0  0  0  0
   -8.3442    5.1632  -15.8374 C   0  0  0  0  0  0  0  0  0  0  0  0
   -7.0279    5.6329  -15.8540 C   0  0  0  0  0  0  0  0  0  0  0  0
   -6.3016    6.1872  -14.8281 N   0  0  0  0  0  0  0  0  0  0  0  0
   -5.0246    6.4346  -15.2364 C   0  0  0  0  0  0  0  0  0  0  0  0
   -4.9159    6.0600  -16.5638 C   0  0  0  0  0  0  0  0  0  0  0  0
   -3.6519    6.0667  -17.2728 C   0  0  0  0  0  0  0  0  0  0  0  0
   -2.6889    5.4246  -16.8431 O   0  0  0  0  0  0  0  0  0  0  0  0
   -3.4825    6.7876  -18.5947 C   0  0  0  0  0  0  0  0  0  0  0  0
   -4.4650    7.7047  -19.0369 O   0  0  0  0  0  0  0  0  0  0  0  0
   -4.4951    8.2812  -20.2659 C   0  0  0  0  0  0  0  0  0  0  0  0
   -5.4740    8.9883  -20.5240 O   0  0  0  0  0  0  0  0  0  0  0  0
   -3.3005    8.1608  -21.2641 C   0  0  0  0  0  0  0  0  0  0  0  0
   -2.5033    6.8428  -21.3029 C   0  0  0  0  0  0  0  0  0  0  0  0
   -2.3444    9.3128  -20.8845 C   0  0  0  0  0  0  0  0  0  0  0  0
   -3.7907    8.3372  -22.7075 C   0  0  0  0  0  0  0  0  0  0  0  0
   -4.9976    7.9365  -23.2595 C   0  0  0  0  0  0  0  0  0  0  0  0
   -5.0097    8.2291  -24.9480 S   0  0  0  0  0  0  0  0  0  0  0  0
   -3.4086    8.8195  -24.8418 C   0  0  0  0  0  0  0  0  0  0  0  0
   -2.8713    8.8131  -23.6438 N   0  0  0  0  0  0  0  0  0  0  0  0
   -6.2004    5.5660  -16.9814 C   0  0  0  0  0  0  0  0  0  0  0  0
  1  2  1  0
  2  3  2  0
  3  4  1  0
  4  5  2  0
  5  6  1  0
  6  7  1  0
  7  8  1  0
  8  9  2  0
  9 10  1  0
 10 11  2  0
 10 12  1  0
 12 13  1  0
 13 14  1  0
 14 15  2  0
 14 16  1  0
 16 17  1  0
 16 18  1  0
 16 19  1  0
 19 20  2  0
 20 21  1  0
 21 22  1  0
 22 23  2  0
  9 24  1  0
 24  2  1  0
 24  6  2  0
 23 19  1  0
M  END
>  <inchikey>  (370) 
BMOHBRLMFDJXAA-UHFFFAOYSA-N

>  <alias>  (370) 
Cc1cccc2[nH]cc(C(=O)COC(=O)C(C)(C)c3cscn3)c12

>  <tags>  (370) 
{'openbind_xx01zvns2b_c1_knitwork_pure', 'fragmenstein_placed'}

>  <HIPPO Pose ID>  (370) 
50838

>  <ref_pdb>  (370) 
35

>  <smiles>  (370) 
C10298-P5

>  <fragmenstein_runtime>  (370) 
3.25681

>  <fragmenstein_outcome>  (370) 
acceptable

>  <fragmenstein_mode>  (370) 
expansion

>  <fragmenstein_error>  (370) 


>  <HIPPO Compound ID>  (370) 
5763

>  <Energy>  (370) 
106.93798

>  <scratch_subdir>  (370) 
/opt/xchem-fragalysis-2/maxwin/BulkDock/SCRATCH/511032/C10298-P5

$$$$
c1cncc(-c2nc(NCc3ccco3)c3ccccc3n2)c1
     RDKit          3D

 23 26  0  0  0  0  0  0  0  0999 V2000
   -8.5188    3.3895  -11.1877 C   0  0  0  0  0  0  0  0  0  0  0  0
   -8.3208    4.4531  -10.3270 C   0  0  0  0  0  0  0  0  0  0  0  0
   -7.7163    5.6082  -10.6849 N   0  0  0  0  0  0  0  0  0  0  0  0
   -7.2950    5.6920  -11.9734 C   0  0  0  0  0  0  0  0  0  0  0  0
   -7.4576    4.6954  -12.9304 C   0  0  0  0  0  0  0  0  0  0  0  0
   -6.9954    4.8609  -14.3009 C   0  0  0  0  0  0  0  0  0  0  0  0
   -5.7344    5.2846  -14.4802 N   0  0  0  0  0  0  0  0  0  0  0  0
   -5.2898    5.3619  -15.7446 C   0  0  0  0  0  0  0  0  0  0  0  0
   -3.9543    5.7555  -15.9671 N   0  0  0  0  0  0  0  0  0  0  0  0
   -3.1774    6.0349  -14.7615 C   0  0  0  0  0  0  0  0  0  0  0  0
   -1.8063    6.5483  -15.0602 C   0  0  0  0  0  0  0  0  0  0  0  0
   -1.2767    7.8185  -15.1706 C   0  0  0  0  0  0  0  0  0  0  0  0
    0.0976    7.6543  -15.4688 C   0  0  0  0  0  0  0  0  0  0  0  0
    0.3185    6.2985  -15.5238 C   0  0  0  0  0  0  0  0  0  0  0  0
   -0.8311    5.6189  -15.2816 O   0  0  0  0  0  0  0  0  0  0  0  0
   -6.1049    5.0337  -16.8423 C   0  0  0  0  0  0  0  0  0  0  0  0
   -5.6892    5.0607  -18.1946 C   0  0  0  0  0  0  0  0  0  0  0  0
   -6.5717    4.7176  -19.2125 C   0  0  0  0  0  0  0  0  0  0  0  0
   -7.8742    4.3523  -18.8985 C   0  0  0  0  0  0  0  0  0  0  0  0
   -8.2812    4.3160  -17.5654 C   0  0  0  0  0  0  0  0  0  0  0  0
   -7.4144    4.6424  -16.5318 C   0  0  0  0  0  0  0  0  0  0  0  0
   -7.8623    4.5670  -15.2787 N   0  0  0  0  0  0  0  0  0  0  0  0
   -8.0812    3.5196  -12.5018 C   0  0  0  0  0  0  0  0  0  0  0  0
  1  2  2  0
  2  3  1  0
  3  4  2  0
  4  5  1  0
  5  6  1  0
  6  7  2  0
  7  8  1  0
  8  9  1  0
  9 10  1  0
 10 11  1  0
 11 12  2  0
 12 13  1  0
 13 14  2  0
 14 15  1  0
  8 16  2  0
 16 17  1  0
 17 18  2  0
 18 19  1  0
 19 20  2  0
 20 21  1  0
 21 22  2  0
  5 23  2  0
 23  1  1  0
 22  6  1  0
 15 11  1  0
 21 16  1  0
M  END
>  <inchikey>  (371) 
QYWLTNDWLMRYAH-UHFFFAOYSA-N

>  <alias>  (371) 
c1cncc(-c2nc(NCc3ccco3)c3ccccc3n2)c1

>  <tags>  (371) 
{'openbind_xx01zvns2b_c1_knitwork_pure', 'fragmenstein_placed'}

>  <HIPPO Pose ID>  (371) 
50939

>  <ref_pdb>  (371) 
35

>  <smiles>  (371) 
C10846-P95

>  <fragmenstein_runtime>  (371) 
2.30707

>  <fragmenstein_outcome>  (371) 
acceptable

>  <fragmenstein_mode>  (371) 
expansion

>  <fragmenstein_error>  (371) 


>  <HIPPO Compound ID>  (371) 
13957

>  <Energy>  (371) 
11.630018

>  <scratch_subdir>  (371) 
/opt/xchem-fragalysis-2/maxwin/BulkDock/SCRATCH/511032/C10846-P95

$$$$
c1ccc(-c2nc(NCc3ccncc3)c3ccccc3n2)cc1
     RDKit          3D

 24 27  0  0  0  0  0  0  0  0999 V2000
   -8.1067    4.6094  -10.4248 C   0  0  0  0  0  0  0  0  0  0  0  0
   -8.3503    3.5641  -11.3080 C   0  0  0  0  0  0  0  0  0  0  0  0
   -7.9693    3.6884  -12.6444 C   0  0  0  0  0  0  0  0  0  0  0  0
   -7.3368    4.8505  -13.1273 C   0  0  0  0  0  0  0  0  0  0  0  0
   -7.0155    4.9669  -14.5533 C   0  0  0  0  0  0  0  0  0  0  0  0
   -5.7588    5.2835  -14.9275 N   0  0  0  0  0  0  0  0  0  0  0  0
   -5.4902    5.2037  -16.2460 C   0  0  0  0  0  0  0  0  0  0  0  0
   -4.1634    5.5181  -16.6002 N   0  0  0  0  0  0  0  0  0  0  0  0
   -3.9858    6.5751  -17.6086 C   0  0  0  0  0  0  0  0  0  0  0  0
   -3.3686    6.0671  -18.9058 C   0  0  0  0  0  0  0  0  0  0  0  0
   -3.7079    6.6348  -20.1411 C   0  0  0  0  0  0  0  0  0  0  0  0
   -3.0795    6.1754  -21.2919 C   0  0  0  0  0  0  0  0  0  0  0  0
   -2.1671    5.1742  -21.3171 N   0  0  0  0  0  0  0  0  0  0  0  0
   -1.8446    4.6511  -20.1113 C   0  0  0  0  0  0  0  0  0  0  0  0
   -2.4061    5.0557  -18.9080 C   0  0  0  0  0  0  0  0  0  0  0  0
   -6.4584    4.8012  -17.1821 C   0  0  0  0  0  0  0  0  0  0  0  0
   -6.2299    4.5516  -18.5497 C   0  0  0  0  0  0  0  0  0  0  0  0
   -7.2651    4.2310  -19.4096 C   0  0  0  0  0  0  0  0  0  0  0  0
   -8.5514    4.1335  -18.9167 C   0  0  0  0  0  0  0  0  0  0  0  0
   -8.7771    4.2900  -17.5527 C   0  0  0  0  0  0  0  0  0  0  0  0
   -7.7471    4.6073  -16.6796 C   0  0  0  0  0  0  0  0  0  0  0  0
   -8.0314    4.7034  -15.3870 N   0  0  0  0  0  0  0  0  0  0  0  0
   -7.0804    5.8824  -12.2152 C   0  0  0  0  0  0  0  0  0  0  0  0
   -7.4704    5.7658  -10.8757 C   0  0  0  0  0  0  0  0  0  0  0  0
  1  2  2  0
  2  3  1  0
  3  4  2  0
  4  5  1  0
  5  6  2  0
  6  7  1  0
  7  8  1  0
  8  9  1  0
  9 10  1  0
 10 11  2  0
 11 12  1  0
 12 13  2  0
 13 14  1  0
 14 15  2  0
  7 16  2  0
 16 17  1  0
 17 18  2  0
 18 19  1  0
 19 20  2  0
 20 21  1  0
 21 22  2  0
  4 23  1  0
 23 24  2  0
 24  1  1  0
 22  5  1  0
 15 10  1  0
 21 16  1  0
M  END
>  <inchikey>  (372) 
ZUZDFCZZFCGAOX-UHFFFAOYSA-N

>  <alias>  (372) 
c1ccc(-c2nc(NCc3ccncc3)c3ccccc3n2)cc1

>  <tags>  (372) 
{'openbind_xx01zvns2b_c1_knitwork_pure', 'fragmenstein_placed'}

>  <HIPPO Pose ID>  (372) 
50987

>  <ref_pdb>  (372) 
35

>  <smiles>  (372) 
C10914-P95

>  <fragmenstein_runtime>  (372) 
2.810231

>  <fragmenstein_outcome>  (372) 
acceptable

>  <fragmenstein_mode>  (372) 
expansion

>  <fragmenstein_error>  (372) 


>  <HIPPO Compound ID>  (372) 
3045

>  <Energy>  (372) 
28.008595

>  <scratch_subdir>  (372) 
/opt/xchem-fragalysis-2/maxwin/BulkDock/SCRATCH/511032/C10914-P95

$$$$
c1ccc2c(NC[C@@H]3CCCO3)nc(-c3ccncc3)nc2c1
     RDKit          3D

 23 26  0  0  0  0  0  0  0  0999 V2000
   -7.9035    4.3676  -18.8582 C   0  0  0  0  0  0  0  0  0  0  0  0
   -6.5951    4.6910  -19.1899 C   0  0  0  0  0  0  0  0  0  0  0  0
   -5.6956    5.0284  -18.1848 C   0  0  0  0  0  0  0  0  0  0  0  0
   -6.1014    5.0568  -16.8290 C   0  0  0  0  0  0  0  0  0  0  0  0
   -5.2784    5.3736  -15.7375 C   0  0  0  0  0  0  0  0  0  0  0  0
   -3.9275    5.7254  -15.8550 N   0  0  0  0  0  0  0  0  0  0  0  0
   -3.6387    7.0377  -16.4553 C   0  0  0  0  0  0  0  0  0  0  0  0
   -4.0023    8.2724  -15.6118 C   0  0  2  0  0  0  0  0  0  0  0  0
   -3.6046    8.2656  -14.1444 C   0  0  0  0  0  0  0  0  0  0  0  0
   -4.5251    9.3241  -13.5855 C   0  0  0  0  0  0  0  0  0  0  0  0
   -5.7973    9.0869  -14.3722 C   0  0  0  0  0  0  0  0  0  0  0  0
   -5.4108    8.5658  -15.6516 O   0  0  0  0  0  0  0  0  0  0  0  0
   -5.6959    5.2911  -14.4648 N   0  0  0  0  0  0  0  0  0  0  0  0
   -6.9664    4.8999  -14.2725 C   0  0  0  0  0  0  0  0  0  0  0  0
   -7.4164    4.7598  -12.8872 C   0  0  0  0  0  0  0  0  0  0  0  0
   -8.0943    3.6141  -12.4578 C   0  0  0  0  0  0  0  0  0  0  0  0
   -8.4856    3.5144  -11.1324 C   0  0  0  0  0  0  0  0  0  0  0  0
   -8.2513    4.4748  -10.2114 N   0  0  0  0  0  0  0  0  0  0  0  0
   -7.6021    5.5738  -10.6387 C   0  0  0  0  0  0  0  0  0  0  0  0
   -7.1644    5.7563  -11.9392 C   0  0  0  0  0  0  0  0  0  0  0  0
   -7.8522    4.6270  -15.2395 N   0  0  0  0  0  0  0  0  0  0  0  0
   -7.4146    4.6919  -16.4991 C   0  0  0  0  0  0  0  0  0  0  0  0
   -8.2967    4.3635  -17.5200 C   0  0  0  0  0  0  0  0  0  0  0  0
  1  2  2  0
  2  3  1  0
  3  4  2  0
  4  5  1  0
  5  6  1  0
  6  7  1  0
  8  7  1  1
  8  9  1  0
  9 10  1  0
 10 11  1  0
 11 12  1  0
  5 13  2  0
 13 14  1  0
 14 15  1  0
 15 16  2  0
 16 17  1  0
 17 18  2  0
 18 19  1  0
 19 20  2  0
 14 21  2  0
 21 22  1  0
 22 23  2  0
 23  1  1  0
 22  4  1  0
 12  8  1  0
 20 15  1  0
M  END
>  <inchikey>  (373) 
JQJUACXZTYSADV-UHFFFAOYSA-N

>  <alias>  (373) 
c1ccc2c(NC[C@@H]3CCCO3)nc(-c3ccncc3)nc2c1

>  <tags>  (373) 
{'openbind_xx01zvns2b_c1_knitwork_pure', 'fragmenstein_placed'}

>  <HIPPO Pose ID>  (373) 
50990

>  <ref_pdb>  (373) 
35

>  <smiles>  (373) 
C10920-P95

>  <fragmenstein_runtime>  (373) 
2.329687

>  <fragmenstein_outcome>  (373) 
acceptable

>  <fragmenstein_mode>  (373) 
expansion

>  <fragmenstein_error>  (373) 


>  <HIPPO Compound ID>  (373) 
15412

>  <Energy>  (373) 
23.6955

>  <scratch_subdir>  (373) 
/opt/xchem-fragalysis-2/maxwin/BulkDock/SCRATCH/511032/C10920-P95

$$$$
c1cncc(-c2nc(NCc3ccncc3)c3ccccc3n2)c1
     RDKit          3D

 24 27  0  0  0  0  0  0  0  0999 V2000
   -8.3537    3.5470  -11.3118 C   0  0  0  0  0  0  0  0  0  0  0  0
   -8.0909    4.6210  -10.4838 C   0  0  0  0  0  0  0  0  0  0  0  0
   -7.4702    5.7520  -10.8927 N   0  0  0  0  0  0  0  0  0  0  0  0
   -7.1048    5.8077  -12.2019 C   0  0  0  0  0  0  0  0  0  0  0  0
   -7.3416    4.8038  -13.1309 C   0  0  0  0  0  0  0  0  0  0  0  0
   -7.0190    4.9444  -14.5470 C   0  0  0  0  0  0  0  0  0  0  0  0
   -5.7634    5.2659  -14.9176 N   0  0  0  0  0  0  0  0  0  0  0  0
   -5.4928    5.1966  -16.2375 C   0  0  0  0  0  0  0  0  0  0  0  0
   -4.1667    5.5148  -16.5894 N   0  0  0  0  0  0  0  0  0  0  0  0
   -3.9864    6.5722  -17.5978 C   0  0  0  0  0  0  0  0  0  0  0  0
   -3.3699    6.0649  -18.8959 C   0  0  0  0  0  0  0  0  0  0  0  0
   -2.4067    5.0542  -18.8997 C   0  0  0  0  0  0  0  0  0  0  0  0
   -1.8464    4.6501  -20.1039 C   0  0  0  0  0  0  0  0  0  0  0  0
   -2.1711    5.1727  -21.3092 N   0  0  0  0  0  0  0  0  0  0  0  0
   -3.0838    6.1735  -21.2827 C   0  0  0  0  0  0  0  0  0  0  0  0
   -3.7107    6.6327  -20.1309 C   0  0  0  0  0  0  0  0  0  0  0  0
   -6.4596    4.7978  -17.1772 C   0  0  0  0  0  0  0  0  0  0  0  0
   -6.2298    4.5530  -18.5454 C   0  0  0  0  0  0  0  0  0  0  0  0
   -7.2637    4.2355  -19.4080 C   0  0  0  0  0  0  0  0  0  0  0  0
   -8.5508    4.1367  -18.9175 C   0  0  0  0  0  0  0  0  0  0  0  0
   -8.7780    4.2875  -17.5531 C   0  0  0  0  0  0  0  0  0  0  0  0
   -7.7487    4.6002  -16.6775 C   0  0  0  0  0  0  0  0  0  0  0  0
   -8.0331    4.6863  -15.3839 N   0  0  0  0  0  0  0  0  0  0  0  0
   -7.9735    3.6482  -12.6462 C   0  0  0  0  0  0  0  0  0  0  0  0
  1  2  2  0
  2  3  1  0
  3  4  2  0
  4  5  1  0
  5  6  1  0
  6  7  2  0
  7  8  1  0
  8  9  1  0
  9 10  1  0
 10 11  1  0
 11 12  2  0
 12 13  1  0
 13 14  2  0
 14 15  1  0
 15 16  2  0
  8 17  2  0
 17 18  1  0
 18 19  2  0
 19 20  1  0
 20 21  2  0
 21 22  1  0
 22 23  2  0
  5 24  2  0
 24  1  1  0
 23  6  1  0
 16 11  1  0
 22 17  1  0
M  END
>  <inchikey>  (374) 
SFBNUCJFUOMACA-UHFFFAOYSA-N

>  <alias>  (374) 
c1cncc(-c2nc(NCc3ccncc3)c3ccccc3n2)c1

>  <tags>  (374) 
{'openbind_xx01zvns2b_c1_knitwork_pure', 'fragmenstein_placed'}

>  <HIPPO Pose ID>  (374) 
50992

>  <ref_pdb>  (374) 
35

>  <smiles>  (374) 
C10922-P95

>  <fragmenstein_runtime>  (374) 
1.558832

>  <fragmenstein_outcome>  (374) 
acceptable

>  <fragmenstein_mode>  (374) 
expansion

>  <fragmenstein_error>  (374) 


>  <HIPPO Compound ID>  (374) 
15459

>  <Energy>  (374) 
24.386814

>  <scratch_subdir>  (374) 
/opt/xchem-fragalysis-2/maxwin/BulkDock/SCRATCH/511032/C10922-P95

$$$$
CC(C)Nc1cccc2[nH]ccc12
     RDKit          3D

 13 14  0  0  0  0  0  0  0  0999 V2000
   -2.2414    4.6912  -18.6060 C   0  0  0  0  0  0  0  0  0  0  0  0
   -3.1368    5.5592  -19.4689 C   0  0  0  0  0  0  0  0  0  0  0  0
   -2.9270    7.0583  -19.3326 C   0  0  0  0  0  0  0  0  0  0  0  0
   -4.5326    5.1536  -19.4380 N   0  0  0  0  0  0  0  0  0  0  0  0
   -5.5047    5.2428  -18.4255 C   0  0  0  0  0  0  0  0  0  0  0  0
   -6.7767    4.7146  -18.7817 C   0  0  0  0  0  0  0  0  0  0  0  0
   -7.8725    4.6615  -17.9229 C   0  0  0  0  0  0  0  0  0  0  0  0
   -7.7589    5.1187  -16.6220 C   0  0  0  0  0  0  0  0  0  0  0  0
   -6.5229    5.6417  -16.2355 C   0  0  0  0  0  0  0  0  0  0  0  0
   -6.1673    6.1484  -15.0059 N   0  0  0  0  0  0  0  0  0  0  0  0
   -4.8669    6.5527  -15.0190 C   0  0  0  0  0  0  0  0  0  0  0  0
   -4.3674    6.2784  -16.2707 C   0  0  0  0  0  0  0  0  0  0  0  0
   -5.4005    5.7102  -17.0816 C   0  0  0  0  0  0  0  0  0  0  0  0
  1  2  1  0
  2  3  1  0
  2  4  1  0
  4  5  1  0
  5  6  2  0
  6  7  1  0
  7  8  2  0
  8  9  1  0
  9 10  1  0
 10 11  1  0
 11 12  2  0
 12 13  1  0
 13  5  1  0
 13  9  2  0
M  END
>  <inchikey>  (375) 
AZCWCXUAPUEYAI-UHFFFAOYSA-N

>  <alias>  (375) 
CC(C)Nc1cccc2[nH]ccc12

>  <tags>  (375) 
{'openbind_xx01zvns2b_c1_knitwork_pure', 'fragmenstein_placed'}

>  <HIPPO Pose ID>  (375) 
51004

>  <ref_pdb>  (375) 
35

>  <smiles>  (375) 
C11167-P5

>  <fragmenstein_runtime>  (375) 
0.788337

>  <fragmenstein_outcome>  (375) 
acceptable

>  <fragmenstein_mode>  (375) 
expansion

>  <fragmenstein_error>  (375) 


>  <HIPPO Compound ID>  (375) 
2771

>  <Energy>  (375) 
34.127671

>  <scratch_subdir>  (375) 
/opt/xchem-fragalysis-2/maxwin/BulkDock/SCRATCH/511032/C11167-P5

$$$$
O=C(NCCCn1cccn1)Nc1ncccc1C(F)(F)F
     RDKit          3D

 22 23  0  0  0  0  0  0  0  0999 V2000
   -6.5659    3.7698  -21.2508 O   0  0  0  0  0  0  0  0  0  0  0  0
   -5.9363    4.4819  -20.6208 C   0  0  0  0  0  0  0  0  0  0  0  0
   -4.6726    5.3084  -20.9986 N   0  0  0  0  0  0  0  0  0  0  0  0
   -4.0155    5.4722  -22.2601 C   0  0  0  0  0  0  0  0  0  0  0  0
   -2.6699    6.1657  -22.2348 C   0  0  0  0  0  0  0  0  0  0  0  0
   -1.6067    5.3871  -21.4638 C   0  0  0  0  0  0  0  0  0  0  0  0
   -1.8247    5.4219  -20.0320 N   0  0  0  0  0  0  0  0  0  0  0  0
   -2.0652    4.3587  -19.2157 C   0  0  0  0  0  0  0  0  0  0  0  0
   -2.3054    4.8821  -17.9704 C   0  0  0  0  0  0  0  0  0  0  0  0
   -2.1459    6.2698  -18.1272 C   0  0  0  0  0  0  0  0  0  0  0  0
   -1.9005    6.6099  -19.3929 N   0  0  0  0  0  0  0  0  0  0  0  0
   -6.1205    4.9522  -19.1511 N   0  0  0  0  0  0  0  0  0  0  0  0
   -7.1479    4.7027  -18.2483 C   0  0  0  0  0  0  0  0  0  0  0  0
   -8.3055    4.2318  -18.7437 N   0  0  0  0  0  0  0  0  0  0  0  0
   -9.3353    4.0376  -17.9018 C   0  0  0  0  0  0  0  0  0  0  0  0
   -9.2473    4.2442  -16.5437 C   0  0  0  0  0  0  0  0  0  0  0  0
   -8.0614    4.7276  -16.0274 C   0  0  0  0  0  0  0  0  0  0  0  0
   -6.9930    4.9862  -16.8933 C   0  0  0  0  0  0  0  0  0  0  0  0
   -5.7359    5.5341  -16.3309 C   0  0  0  0  0  0  0  0  0  0  0  0
   -5.1568    4.7357  -15.3941 F   0  0  0  0  0  0  0  0  0  0  0  0
   -4.7774    5.7609  -17.2649 F   0  0  0  0  0  0  0  0  0  0  0  0
   -5.9212    6.7447  -15.7334 F   0  0  0  0  0  0  0  0  0  0  0  0
  1  2  2  0
  2  3  1  0
  3  4  1  0
  4  5  1  0
  5  6  1  0
  6  7  1  0
  7  8  1  0
  8  9  2  0
  9 10  1  0
 10 11  2  0
  2 12  1  0
 12 13  1  0
 13 14  2  0
 14 15  1  0
 15 16  2  0
 16 17  1  0
 17 18  2  0
 18 19  1  0
 19 20  1  0
 19 21  1  0
 19 22  1  0
 11  7  1  0
 18 13  1  0
M  END
>  <inchikey>  (376) 
HIFXZHKWHHGBQM-UHFFFAOYSA-N

>  <alias>  (376) 
O=C(NCCCn1cccn1)Nc1ncccc1C(F)(F)F

>  <tags>  (376) 
{'openbind_xx01zvns2b_c1_knitwork_pure', 'fragmenstein_placed'}

>  <HIPPO Pose ID>  (376) 
51036

>  <ref_pdb>  (376) 
35

>  <smiles>  (376) 
C11415-P51

>  <fragmenstein_runtime>  (376) 
2.700274

>  <fragmenstein_outcome>  (376) 
acceptable

>  <fragmenstein_mode>  (376) 
expansion

>  <fragmenstein_error>  (376) 


>  <HIPPO Compound ID>  (376) 
2648

>  <Energy>  (376) 
-46.112364

>  <scratch_subdir>  (376) 
/opt/xchem-fragalysis-2/maxwin/BulkDock/SCRATCH/511032/C11415-P51

$$$$
Clc1ccc(CNCc2ccc3c(c2)CNC3)s1
     RDKit          3D

 18 20  0  0  0  0  0  0  0  0999 V2000
   -5.5214    5.2494  -19.0109 Cl  0  0  0  0  0  0  0  0  0  0  0  0
   -6.8388    5.0406  -17.9416 C   0  0  0  0  0  0  0  0  0  0  0  0
   -8.1397    4.7457  -18.2500 C   0  0  0  0  0  0  0  0  0  0  0  0
   -8.9297    4.6317  -17.0633 C   0  0  0  0  0  0  0  0  0  0  0  0
   -8.1806    4.8334  -15.9134 C   0  0  0  0  0  0  0  0  0  0  0  0
   -8.5674    4.6323  -14.4791 C   0  0  0  0  0  0  0  0  0  0  0  0
   -8.3200    5.7886  -13.6041 N   0  0  0  0  0  0  0  0  0  0  0  0
   -7.3664    5.5076  -12.5133 C   0  0  0  0  0  0  0  0  0  0  0  0
   -7.9209    4.7734  -11.3007 C   0  0  0  0  0  0  0  0  0  0  0  0
   -8.5933    3.5494  -11.4493 C   0  0  0  0  0  0  0  0  0  0  0  0
   -9.0245    2.8055  -10.3572 C   0  0  0  0  0  0  0  0  0  0  0  0
   -8.7211    3.2387   -9.0945 C   0  0  0  0  0  0  0  0  0  0  0  0
   -8.0652    4.4424   -8.9057 C   0  0  0  0  0  0  0  0  0  0  0  0
   -7.6741    5.2297   -9.9882 C   0  0  0  0  0  0  0  0  0  0  0  0
   -7.9016    4.6541   -7.4390 C   0  0  0  0  0  0  0  0  0  0  0  0
   -8.2336    3.3595   -6.7904 N   0  0  0  0  0  0  0  0  0  0  0  0
   -9.0004    2.5782   -7.7928 C   0  0  0  0  0  0  0  0  0  0  0  0
   -6.5510    5.2029  -16.2900 S   0  0  0  0  0  0  0  0  0  0  0  0
  1  2  1  0
  2  3  2  0
  3  4  1  0
  4  5  2  0
  5  6  1  0
  6  7  1  0
  7  8  1  0
  8  9  1  0
  9 10  2  0
 10 11  1  0
 11 12  2  0
 12 13  1  0
 13 14  2  0
 13 15  1  0
 15 16  1  0
 16 17  1  0
  5 18  1  0
 18  2  1  0
 14  9  1  0
 17 12  1  0
M  END
>  <inchikey>  (377) 
CHDWRFSPHQSJIW-UHFFFAOYSA-N

>  <alias>  (377) 
Clc1ccc(CNCc2ccc3c(c2)CNC3)s1

>  <tags>  (377) 
{'openbind_xx01zvns2b_c1_knitwork_pure', 'fragmenstein_placed'}

>  <HIPPO Pose ID>  (377) 
51073

>  <ref_pdb>  (377) 
35

>  <smiles>  (377) 
C9231-P17

>  <fragmenstein_runtime>  (377) 
2.700212

>  <fragmenstein_outcome>  (377) 
acceptable

>  <fragmenstein_mode>  (377) 
expansion

>  <fragmenstein_error>  (377) 


>  <HIPPO Compound ID>  (377) 
6746

>  <Energy>  (377) 
32.94927

>  <scratch_subdir>  (377) 
/opt/xchem-fragalysis-2/maxwin/BulkDock/SCRATCH/511032/C9231-P17

$$$$
c1cnc2c(CCN3CCNCC3)cccc2c1
     RDKit          3D

 18 20  0  0  0  0  0  0  0  0999 V2000
   -5.3452    5.0683  -14.2503 C   0  0  0  0  0  0  0  0  0  0  0  0
   -4.5644    5.1277  -15.3813 C   0  0  0  0  0  0  0  0  0  0  0  0
   -5.0481    5.0166  -16.6375 N   0  0  0  0  0  0  0  0  0  0  0  0
   -6.3753    4.8551  -16.8344 C   0  0  0  0  0  0  0  0  0  0  0  0
   -6.9424    4.7518  -18.1179 C   0  0  0  0  0  0  0  0  0  0  0  0
   -6.1632    4.6949  -19.4227 C   0  0  0  0  0  0  0  0  0  0  0  0
   -4.6806    5.0729  -19.5136 C   0  0  0  0  0  0  0  0  0  0  0  0
   -4.2708    6.4791  -19.6823 N   0  0  0  0  0  0  0  0  0  0  0  0
   -3.0645    6.7774  -18.8932 C   0  0  0  0  0  0  0  0  0  0  0  0
   -2.7894    8.2936  -18.7826 C   0  0  0  0  0  0  0  0  0  0  0  0
   -3.8732    9.0698  -18.1458 N   0  0  0  0  0  0  0  0  0  0  0  0
   -5.1602    8.3525  -18.2433 C   0  0  0  0  0  0  0  0  0  0  0  0
   -5.3033    7.5084  -19.5203 C   0  0  0  0  0  0  0  0  0  0  0  0
   -8.3408    4.5864  -18.2536 C   0  0  0  0  0  0  0  0  0  0  0  0
   -9.1739    4.5120  -17.1470 C   0  0  0  0  0  0  0  0  0  0  0  0
   -8.6227    4.6023  -15.8790 C   0  0  0  0  0  0  0  0  0  0  0  0
   -7.2435    4.7826  -15.7160 C   0  0  0  0  0  0  0  0  0  0  0  0
   -6.7070    4.8854  -14.4250 C   0  0  0  0  0  0  0  0  0  0  0  0
  1  2  2  0
  2  3  1  0
  3  4  2  0
  4  5  1  0
  5  6  1  0
  6  7  1  0
  7  8  1  0
  8  9  1  0
  9 10  1  0
 10 11  1  0
 11 12  1  0
 12 13  1  0
  5 14  2  0
 14 15  1  0
 15 16  2  0
 16 17  1  0
 17 18  2  0
 18  1  1  0
 17  4  1  0
 13  8  1  0
M  END
>  <inchikey>  (378) 
ABEDJGGPPYLYTD-UHFFFAOYSA-N

>  <alias>  (378) 
c1cnc2c(CCN3CCNCC3)cccc2c1

>  <tags>  (378) 
{'openbind_xx01zvns2b_c1_knitwork_pure', 'fragmenstein_placed'}

>  <HIPPO Pose ID>  (378) 
51303

>  <ref_pdb>  (378) 
35

>  <smiles>  (378) 
C12211-P62

>  <fragmenstein_runtime>  (378) 
1.848575

>  <fragmenstein_outcome>  (378) 
acceptable

>  <fragmenstein_mode>  (378) 
expansion

>  <fragmenstein_error>  (378) 


>  <HIPPO Compound ID>  (378) 
11375

>  <Energy>  (378) 
134.714066

>  <scratch_subdir>  (378) 
/opt/xchem-fragalysis-2/maxwin/BulkDock/SCRATCH/511032/C12211-P62

$$$$
c1cc(-c2ncc[nH]2)ccn1
     RDKit          3D

 11 12  0  0  0  0  0  0  0  0999 V2000
   -8.5728    4.2245  -17.5081 C   0  0  0  0  0  0  0  0  0  0  0  0
   -7.5271    4.3703  -18.4015 C   0  0  0  0  0  0  0  0  0  0  0  0
   -6.2727    4.7576  -17.9233 C   0  0  0  0  0  0  0  0  0  0  0  0
   -5.1577    4.9139  -18.8675 C   0  0  0  0  0  0  0  0  0  0  0  0
   -5.2387    4.8798  -20.1893 N   0  0  0  0  0  0  0  0  0  0  0  0
   -3.9653    5.0487  -20.6642 C   0  0  0  0  0  0  0  0  0  0  0  0
   -3.0746    5.1540  -19.6282 C   0  0  0  0  0  0  0  0  0  0  0  0
   -3.8387    5.0764  -18.4979 N   0  0  0  0  0  0  0  0  0  0  0  0
   -6.1304    4.9613  -16.5473 C   0  0  0  0  0  0  0  0  0  0  0  0
   -7.2323    4.7737  -15.7277 C   0  0  0  0  0  0  0  0  0  0  0  0
   -8.4530    4.4395  -16.1827 N   0  0  0  0  0  0  0  0  0  0  0  0
  1  2  2  0
  2  3  1  0
  3  4  1  0
  4  5  2  0
  5  6  1  0
  6  7  2  0
  7  8  1  0
  3  9  2  0
  9 10  1  0
 10 11  2  0
 11  1  1  0
  8  4  1  0
M  END
>  <inchikey>  (379) 
ACZXIBJGJBLRBJ-UHFFFAOYSA-N

>  <alias>  (379) 
c1cc(-c2ncc[nH]2)ccn1

>  <tags>  (379) 
{'openbind_xx01zvns2b_c1_knitwork_pure', 'fragmenstein_placed'}

>  <HIPPO Pose ID>  (379) 
51336

>  <ref_pdb>  (379) 
35

>  <smiles>  (379) 
C3715-P71

>  <fragmenstein_runtime>  (379) 
1.014063

>  <fragmenstein_outcome>  (379) 
acceptable

>  <fragmenstein_mode>  (379) 
expansion

>  <fragmenstein_error>  (379) 


>  <HIPPO Compound ID>  (379) 
13096

>  <Energy>  (379) 
8.053969

>  <scratch_subdir>  (379) 
/opt/xchem-fragalysis-2/maxwin/BulkDock/SCRATCH/511032/C3715-P71

$$$$
c1cncc(-c2ncc[nH]2)c1
     RDKit          3D

 11 12  0  0  0  0  0  0  0  0999 V2000
   -8.5874    4.0903  -17.4607 C   0  0  0  0  0  0  0  0  0  0  0  0
   -8.3879    4.4190  -16.1307 C   0  0  0  0  0  0  0  0  0  0  0  0
   -7.2367    4.9348  -15.6488 N   0  0  0  0  0  0  0  0  0  0  0  0
   -6.2272    5.0811  -16.5435 C   0  0  0  0  0  0  0  0  0  0  0  0
   -6.3084    4.7743  -17.9014 C   0  0  0  0  0  0  0  0  0  0  0  0
   -5.1850    4.9345  -18.8298 C   0  0  0  0  0  0  0  0  0  0  0  0
   -5.2460    4.8849  -20.1521 N   0  0  0  0  0  0  0  0  0  0  0  0
   -3.9673    5.0594  -20.6101 C   0  0  0  0  0  0  0  0  0  0  0  0
   -3.0928    5.1806  -19.5621 C   0  0  0  0  0  0  0  0  0  0  0  0
   -3.8720    5.1071  -18.4417 N   0  0  0  0  0  0  0  0  0  0  0  0
   -7.5353    4.2819  -18.3533 C   0  0  0  0  0  0  0  0  0  0  0  0
  1  2  2  0
  2  3  1  0
  3  4  2  0
  4  5  1  0
  5  6  1  0
  6  7  2  0
  7  8  1  0
  8  9  2  0
  9 10  1  0
  5 11  2  0
 11  1  1  0
 10  6  1  0
M  END
>  <inchikey>  (380) 
OGVAUCDOPMETDG-UHFFFAOYSA-N

>  <alias>  (380) 
c1cncc(-c2ncc[nH]2)c1

>  <tags>  (380) 
{'openbind_xx01zvns2b_c1_knitwork_pure', 'fragmenstein_placed'}

>  <HIPPO Pose ID>  (380) 
51337

>  <ref_pdb>  (380) 
35

>  <smiles>  (380) 
C3716-P71

>  <fragmenstein_runtime>  (380) 
1.581322

>  <fragmenstein_outcome>  (380) 
acceptable

>  <fragmenstein_mode>  (380) 
expansion

>  <fragmenstein_error>  (380) 


>  <HIPPO Compound ID>  (380) 
14036

>  <Energy>  (380) 
26.053418

>  <scratch_subdir>  (380) 
/opt/xchem-fragalysis-2/maxwin/BulkDock/SCRATCH/511032/C3716-P71

$$$$
CC(C)(C)c1nnc2c(N3CCNCC3)cccn12
     RDKit          3D

 19 21  0  0  0  0  0  0  0  0999 V2000
   -8.5278    6.1989  -12.7972 C   0  0  0  0  0  0  0  0  0  0  0  0
   -7.4000    5.1638  -12.9023 C   0  0  0  0  0  0  0  0  0  0  0  0
   -7.8820    3.7576  -12.5393 C   0  0  0  0  0  0  0  0  0  0  0  0
   -6.3285    5.5472  -11.8476 C   0  0  0  0  0  0  0  0  0  0  0  0
   -6.7892    5.2444  -14.2817 C   0  0  0  0  0  0  0  0  0  0  0  0
   -5.6025    5.7789  -14.5131 N   0  0  0  0  0  0  0  0  0  0  0  0
   -5.4207    5.8873  -15.8561 N   0  0  0  0  0  0  0  0  0  0  0  0
   -6.4947    5.4131  -16.4477 C   0  0  0  0  0  0  0  0  0  0  0  0
   -6.8620    5.3525  -17.8318 C   0  0  0  0  0  0  0  0  0  0  0  0
   -6.1182    6.0159  -18.8039 N   0  0  0  0  0  0  0  0  0  0  0  0
   -5.5025    7.3354  -18.5961 C   0  0  0  0  0  0  0  0  0  0  0  0
   -3.9613    7.2694  -18.5821 C   0  0  0  0  0  0  0  0  0  0  0  0
   -3.3845    6.5524  -19.7428 N   0  0  0  0  0  0  0  0  0  0  0  0
   -4.0040    5.2091  -19.7658 C   0  0  0  0  0  0  0  0  0  0  0  0
   -5.5378    5.2734  -19.9241 C   0  0  0  0  0  0  0  0  0  0  0  0
   -7.9925    4.6762  -18.1452 C   0  0  0  0  0  0  0  0  0  0  0  0
   -8.8868    4.1390  -17.1386 C   0  0  0  0  0  0  0  0  0  0  0  0
   -8.5720    4.2957  -15.8432 C   0  0  0  0  0  0  0  0  0  0  0  0
   -7.3757    4.9181  -15.4976 N   0  0  0  0  0  0  0  0  0  0  0  0
  1  2  1  0
  2  3  1  0
  2  4  1  0
  2  5  1  0
  5  6  2  0
  6  7  1  0
  7  8  2  0
  8  9  1  0
  9 10  1  0
 10 11  1  0
 11 12  1  0
 12 13  1  0
 13 14  1  0
 14 15  1  0
  9 16  2  0
 16 17  1  0
 17 18  2  0
 18 19  1  0
 19  5  1  0
 19  8  1  0
 15 10  1  0
M  END
>  <inchikey>  (381) 
DDACXWGKQUTIHH-UHFFFAOYSA-N

>  <alias>  (381) 
CC(C)(C)c1nnc2c(N3CCNCC3)cccn12

>  <tags>  (381) 
{'openbind_xx01zvns2b_c1_knitwork_pure', 'fragmenstein_placed'}

>  <HIPPO Pose ID>  (381) 
51942

>  <ref_pdb>  (381) 
35

>  <smiles>  (381) 
C13750-P58

>  <fragmenstein_runtime>  (381) 
2.430784

>  <fragmenstein_outcome>  (381) 
acceptable

>  <fragmenstein_mode>  (381) 
expansion

>  <fragmenstein_error>  (381) 


>  <HIPPO Compound ID>  (381) 
8333

>  <Energy>  (381) 
131.210729

>  <scratch_subdir>  (381) 
/opt/xchem-fragalysis-2/maxwin/BulkDock/SCRATCH/511032/C13750-P58

$$$$
CC(C)(C)c1nnc2c(N3CCNCC3)cc(F)cn12
     RDKit          3D

 20 22  0  0  0  0  0  0  0  0999 V2000
   -8.5934    6.3050  -12.9916 C   0  0  0  0  0  0  0  0  0  0  0  0
   -7.5246    5.2051  -12.9128 C   0  0  0  0  0  0  0  0  0  0  0  0
   -6.5321    5.6165  -11.7940 C   0  0  0  0  0  0  0  0  0  0  0  0
   -8.1179    3.8604  -12.4981 C   0  0  0  0  0  0  0  0  0  0  0  0
   -6.7892    5.1291  -14.2300 C   0  0  0  0  0  0  0  0  0  0  0  0
   -5.5237    5.4842  -14.3675 N   0  0  0  0  0  0  0  0  0  0  0  0
   -5.2191    5.5285  -15.6906 N   0  0  0  0  0  0  0  0  0  0  0  0
   -6.2932    5.1773  -16.3632 C   0  0  0  0  0  0  0  0  0  0  0  0
   -6.5498    5.1610  -17.7778 C   0  0  0  0  0  0  0  0  0  0  0  0
   -5.5676    5.6831  -18.6169 N   0  0  0  0  0  0  0  0  0  0  0  0
   -4.2583    5.0209  -18.6795 C   0  0  0  0  0  0  0  0  0  0  0  0
   -3.1497    6.0330  -18.9982 C   0  0  0  0  0  0  0  0  0  0  0  0
   -3.3813    6.7649  -20.2593 N   0  0  0  0  0  0  0  0  0  0  0  0
   -4.7211    7.3882  -20.2014 C   0  0  0  0  0  0  0  0  0  0  0  0
   -5.8668    6.4126  -19.8514 C   0  0  0  0  0  0  0  0  0  0  0  0
   -7.7501    4.6858  -18.1813 C   0  0  0  0  0  0  0  0  0  0  0  0
   -8.7474    4.2267  -17.2396 C   0  0  0  0  0  0  0  0  0  0  0  0
   -9.9045    3.7311  -17.7144 F   0  0  0  0  0  0  0  0  0  0  0  0
   -8.5311    4.3348  -15.9221 C   0  0  0  0  0  0  0  0  0  0  0  0
   -7.3072    4.8273  -15.4837 N   0  0  0  0  0  0  0  0  0  0  0  0
  1  2  1  0
  2  3  1  0
  2  4  1  0
  2  5  1  0
  5  6  2  0
  6  7  1  0
  7  8  2  0
  8  9  1  0
  9 10  1  0
 10 11  1  0
 11 12  1  0
 12 13  1  0
 13 14  1  0
 14 15  1  0
  9 16  2  0
 16 17  1  0
 17 18  1  0
 17 19  2  0
 19 20  1  0
 20  5  1  0
 20  8  1  0
 15 10  1  0
M  END
>  <inchikey>  (382) 
CFUIOMVUQYZWRO-UHFFFAOYSA-N

>  <alias>  (382) 
CC(C)(C)c1nnc2c(N3CCNCC3)cc(F)cn12

>  <tags>  (382) 
{'openbind_xx01zvns2b_c1_knitwork_pure', 'fragmenstein_placed'}

>  <HIPPO Pose ID>  (382) 
51944

>  <ref_pdb>  (382) 
35

>  <smiles>  (382) 
C13752-P58

>  <fragmenstein_runtime>  (382) 
2.677858

>  <fragmenstein_outcome>  (382) 
acceptable

>  <fragmenstein_mode>  (382) 
expansion

>  <fragmenstein_error>  (382) 


>  <HIPPO Compound ID>  (382) 
2295

>  <Energy>  (382) 
112.993575

>  <scratch_subdir>  (382) 
/opt/xchem-fragalysis-2/maxwin/BulkDock/SCRATCH/511032/C13752-P58

$$$$
CC(C)Cc1nnc2c(N3CCNCC3)cccn12
     RDKit          3D

 19 21  0  0  0  0  0  0  0  0999 V2000
   -8.9227    6.9978  -13.1017 C   0  0  0  0  0  0  0  0  0  0  0  0
   -8.2315    5.9097  -12.2815 C   0  0  0  0  0  0  0  0  0  0  0  0
   -6.9839    6.4680  -11.5911 C   0  0  0  0  0  0  0  0  0  0  0  0
   -7.9576    4.6309  -13.0975 C   0  0  0  0  0  0  0  0  0  0  0  0
   -7.1190    4.8648  -14.3021 C   0  0  0  0  0  0  0  0  0  0  0  0
   -5.8773    5.3092  -14.2899 N   0  0  0  0  0  0  0  0  0  0  0  0
   -5.4804    5.5085  -15.5821 N   0  0  0  0  0  0  0  0  0  0  0  0
   -6.4738    5.1496  -16.3710 C   0  0  0  0  0  0  0  0  0  0  0  0
   -6.6218    5.1908  -17.8003 C   0  0  0  0  0  0  0  0  0  0  0  0
   -5.5820    5.7381  -18.5583 N   0  0  0  0  0  0  0  0  0  0  0  0
   -4.2868    5.0392  -18.5452 C   0  0  0  0  0  0  0  0  0  0  0  0
   -3.1396    5.9909  -18.9119 C   0  0  0  0  0  0  0  0  0  0  0  0
   -3.3221    6.6552  -20.2175 N   0  0  0  0  0  0  0  0  0  0  0  0
   -4.6387    7.3277  -20.2160 C   0  0  0  0  0  0  0  0  0  0  0  0
   -5.8213    6.4099  -19.8421 C   0  0  0  0  0  0  0  0  0  0  0  0
   -7.7798    4.7088  -18.3120 C   0  0  0  0  0  0  0  0  0  0  0  0
   -8.8612    4.1967  -17.4886 C   0  0  0  0  0  0  0  0  0  0  0  0
   -8.7148    4.2105  -16.1558 C   0  0  0  0  0  0  0  0  0  0  0  0
   -7.5308    4.6889  -15.6074 N   0  0  0  0  0  0  0  0  0  0  0  0
  1  2  1  0
  2  3  1  0
  2  4  1  0
  4  5  1  0
  5  6  2  0
  6  7  1  0
  7  8  2  0
  8  9  1  0
  9 10  1  0
 10 11  1  0
 11 12  1  0
 12 13  1  0
 13 14  1  0
 14 15  1  0
  9 16  2  0
 16 17  1  0
 17 18  2  0
 18 19  1  0
 19  5  1  0
 19  8  1  0
 15 10  1  0
M  END
>  <inchikey>  (383) 
TWJJIRBIOGQRIU-UHFFFAOYSA-N

>  <alias>  (383) 
CC(C)Cc1nnc2c(N3CCNCC3)cccn12

>  <tags>  (383) 
{'openbind_xx01zvns2b_c1_knitwork_pure', 'fragmenstein_placed'}

>  <HIPPO Pose ID>  (383) 
51945

>  <ref_pdb>  (383) 
35

>  <smiles>  (383) 
C13753-P58

>  <fragmenstein_runtime>  (383) 
2.351106

>  <fragmenstein_outcome>  (383) 
acceptable

>  <fragmenstein_mode>  (383) 
expansion

>  <fragmenstein_error>  (383) 


>  <HIPPO Compound ID>  (383) 
6774

>  <Energy>  (383) 
119.300529

>  <scratch_subdir>  (383) 
/opt/xchem-fragalysis-2/maxwin/BulkDock/SCRATCH/511032/C13753-P58

$$$$
CC(C)Cc1nnc2c(N3CCNCC3)cc(F)cn12
     RDKit          3D

 20 22  0  0  0  0  0  0  0  0999 V2000
   -8.8196    7.0221  -12.8735 C   0  0  0  0  0  0  0  0  0  0  0  0
   -7.8737    5.9799  -12.2737 C   0  0  0  0  0  0  0  0  0  0  0  0
   -8.1968    5.6454  -10.8189 C   0  0  0  0  0  0  0  0  0  0  0  0
   -7.8426    4.6893  -13.1186 C   0  0  0  0  0  0  0  0  0  0  0  0
   -7.0430    4.8966  -14.3513 C   0  0  0  0  0  0  0  0  0  0  0  0
   -5.8058    5.3539  -14.3676 N   0  0  0  0  0  0  0  0  0  0  0  0
   -5.4342    5.5333  -15.6676 N   0  0  0  0  0  0  0  0  0  0  0  0
   -6.4397    5.1561  -16.4311 C   0  0  0  0  0  0  0  0  0  0  0  0
   -6.6103    5.1799  -17.8579 C   0  0  0  0  0  0  0  0  0  0  0  0
   -5.5839    5.7335  -18.6246 N   0  0  0  0  0  0  0  0  0  0  0  0
   -4.2896    5.0348  -18.6494 C   0  0  0  0  0  0  0  0  0  0  0  0
   -3.1461    6.0061  -18.9722 C   0  0  0  0  0  0  0  0  0  0  0  0
   -3.3348    6.7250  -20.2474 N   0  0  0  0  0  0  0  0  0  0  0  0
   -4.6554    7.3892  -20.2191 C   0  0  0  0  0  0  0  0  0  0  0  0
   -5.8331    6.4504  -19.8800 C   0  0  0  0  0  0  0  0  0  0  0  0
   -7.7688    4.6781  -18.3465 C   0  0  0  0  0  0  0  0  0  0  0  0
   -8.8124    4.1616  -17.4884 C   0  0  0  0  0  0  0  0  0  0  0  0
   -9.9311    3.6667  -18.0471 F   0  0  0  0  0  0  0  0  0  0  0  0
   -8.6635    4.1959  -16.1598 C   0  0  0  0  0  0  0  0  0  0  0  0
   -7.4797    4.6971  -15.6419 N   0  0  0  0  0  0  0  0  0  0  0  0
  1  2  1  0
  2  3  1  0
  2  4  1  0
  4  5  1  0
  5  6  2  0
  6  7  1  0
  7  8  2  0
  8  9  1  0
  9 10  1  0
 10 11  1  0
 11 12  1  0
 12 13  1  0
 13 14  1  0
 14 15  1  0
  9 16  2  0
 16 17  1  0
 17 18  1  0
 17 19  2  0
 19 20  1  0
 20  5  1  0
 20  8  1  0
 15 10  1  0
M  END
>  <inchikey>  (384) 
ZWGLUCFWIMGAQE-UHFFFAOYSA-N

>  <alias>  (384) 
CC(C)Cc1nnc2c(N3CCNCC3)cc(F)cn12

>  <tags>  (384) 
{'openbind_xx01zvns2b_c1_knitwork_pure', 'fragmenstein_placed'}

>  <HIPPO Pose ID>  (384) 
51948

>  <ref_pdb>  (384) 
35

>  <smiles>  (384) 
C13756-P58

>  <fragmenstein_runtime>  (384) 
2.007274

>  <fragmenstein_outcome>  (384) 
acceptable

>  <fragmenstein_mode>  (384) 
expansion

>  <fragmenstein_error>  (384) 


>  <HIPPO Compound ID>  (384) 
1055

>  <Energy>  (384) 
104.031399

>  <scratch_subdir>  (384) 
/opt/xchem-fragalysis-2/maxwin/BulkDock/SCRATCH/511032/C13756-P58

$$$$
c1cc(N2CCNCC2)c2nnc(C3CC3)n2c1
     RDKit          3D

 18 21  0  0  0  0  0  0  0  0999 V2000
   -8.8488    4.1729  -17.5174 C   0  0  0  0  0  0  0  0  0  0  0  0
   -7.7581    4.6762  -18.3360 C   0  0  0  0  0  0  0  0  0  0  0  0
   -6.6167    5.1948  -17.8187 C   0  0  0  0  0  0  0  0  0  0  0  0
   -5.5799    5.7547  -18.5765 N   0  0  0  0  0  0  0  0  0  0  0  0
   -5.8750    6.4673  -19.8278 C   0  0  0  0  0  0  0  0  0  0  0  0
   -4.6570    7.2618  -20.3289 C   0  0  0  0  0  0  0  0  0  0  0  0
   -3.4998    6.3692  -20.5724 N   0  0  0  0  0  0  0  0  0  0  0  0
   -3.1716    5.7417  -19.2733 C   0  0  0  0  0  0  0  0  0  0  0  0
   -4.3412    4.9633  -18.6510 C   0  0  0  0  0  0  0  0  0  0  0  0
   -6.4865    5.1895  -16.3894 C   0  0  0  0  0  0  0  0  0  0  0  0
   -5.5076    5.5550  -15.5828 N   0  0  0  0  0  0  0  0  0  0  0  0
   -5.9874    5.5132  -14.2963 N   0  0  0  0  0  0  0  0  0  0  0  0
   -7.2438    5.1258  -14.3548 C   0  0  0  0  0  0  0  0  0  0  0  0
   -8.2510    5.2972  -13.1913 C   0  0  0  0  0  0  0  0  0  0  0  0
   -7.8768    6.0530  -11.9479 C   0  0  0  0  0  0  0  0  0  0  0  0
   -8.7311    6.7202  -12.9819 C   0  0  0  0  0  0  0  0  0  0  0  0
   -7.5745    4.7887  -15.6420 N   0  0  0  0  0  0  0  0  0  0  0  0
   -8.7385    4.2643  -16.1846 C   0  0  0  0  0  0  0  0  0  0  0  0
  1  2  1  0
  2  3  2  0
  3  4  1  0
  4  5  1  0
  5  6  1  0
  6  7  1  0
  7  8  1  0
  8  9  1  0
  3 10  1  0
 10 11  2  0
 11 12  1  0
 12 13  2  0
 13 14  1  0
 14 15  1  0
 15 16  1  0
 13 17  1  0
 17 18  1  0
 18  1  2  0
  9  4  1  0
 17 10  1  0
 16 14  1  0
M  END
>  <inchikey>  (385) 
HUSILMAMDIXCAZ-UHFFFAOYSA-N

>  <alias>  (385) 
c1cc(N2CCNCC2)c2nnc(C3CC3)n2c1

>  <tags>  (385) 
{'openbind_xx01zvns2b_c1_knitwork_pure', 'fragmenstein_placed'}

>  <HIPPO Pose ID>  (385) 
51952

>  <ref_pdb>  (385) 
35

>  <smiles>  (385) 
C13761-P58

>  <fragmenstein_runtime>  (385) 
2.495082

>  <fragmenstein_outcome>  (385) 
acceptable

>  <fragmenstein_mode>  (385) 
expansion

>  <fragmenstein_error>  (385) 


>  <HIPPO Compound ID>  (385) 
4500

>  <Energy>  (385) 
139.336692

>  <scratch_subdir>  (385) 
/opt/xchem-fragalysis-2/maxwin/BulkDock/SCRATCH/511032/C13761-P58

$$$$
Clc1cc(N2CCNCC2)c2nnc(C3CC3)n2c1
     RDKit          3D

 19 22  0  0  0  0  0  0  0  0999 V2000
  -10.2548    3.9718  -18.1031 Cl  0  0  0  0  0  0  0  0  0  0  0  0
   -8.7609    4.3406  -17.3857 C   0  0  0  0  0  0  0  0  0  0  0  0
   -7.6788    4.7917  -18.2310 C   0  0  0  0  0  0  0  0  0  0  0  0
   -6.5065    5.2546  -17.7373 C   0  0  0  0  0  0  0  0  0  0  0  0
   -5.4871    5.7930  -18.5345 N   0  0  0  0  0  0  0  0  0  0  0  0
   -5.8188    6.4704  -19.8011 C   0  0  0  0  0  0  0  0  0  0  0  0
   -4.6127    7.2347  -20.3701 C   0  0  0  0  0  0  0  0  0  0  0  0
   -3.4763    6.3197  -20.6255 N   0  0  0  0  0  0  0  0  0  0  0  0
   -3.1032    5.7355  -19.3189 C   0  0  0  0  0  0  0  0  0  0  0  0
   -4.2522    4.9935  -18.6190 C   0  0  0  0  0  0  0  0  0  0  0  0
   -6.3415    5.2185  -16.3089 C   0  0  0  0  0  0  0  0  0  0  0  0
   -5.3452    5.5567  -15.5126 N   0  0  0  0  0  0  0  0  0  0  0  0
   -5.8065    5.5086  -14.2158 N   0  0  0  0  0  0  0  0  0  0  0  0
   -7.0682    5.1392  -14.2568 C   0  0  0  0  0  0  0  0  0  0  0  0
   -8.0717    5.3078  -13.0857 C   0  0  0  0  0  0  0  0  0  0  0  0
   -7.7282    6.1469  -11.8885 C   0  0  0  0  0  0  0  0  0  0  0  0
   -8.6375    6.7073  -12.9383 C   0  0  0  0  0  0  0  0  0  0  0  0
   -7.4213    4.8263  -15.5419 N   0  0  0  0  0  0  0  0  0  0  0  0
   -8.6176    4.3683  -16.0580 C   0  0  0  0  0  0  0  0  0  0  0  0
  1  2  1  0
  2  3  1  0
  3  4  2  0
  4  5  1  0
  5  6  1  0
  6  7  1  0
  7  8  1  0
  8  9  1  0
  9 10  1  0
  4 11  1  0
 11 12  2  0
 12 13  1  0
 13 14  2  0
 14 15  1  0
 15 16  1  0
 16 17  1  0
 14 18  1  0
 18 19  1  0
 19  2  2  0
 10  5  1  0
 18 11  1  0
 17 15  1  0
M  END
>  <inchikey>  (386) 
QLVSAJOLERJXDY-UHFFFAOYSA-N

>  <alias>  (386) 
Clc1cc(N2CCNCC2)c2nnc(C3CC3)n2c1

>  <tags>  (386) 
{'openbind_xx01zvns2b_c1_knitwork_pure', 'fragmenstein_placed'}

>  <HIPPO Pose ID>  (386) 
51955

>  <ref_pdb>  (386) 
35

>  <smiles>  (386) 
C13764-P58

>  <fragmenstein_runtime>  (386) 
2.450206

>  <fragmenstein_outcome>  (386) 
acceptable

>  <fragmenstein_mode>  (386) 
expansion

>  <fragmenstein_error>  (386) 


>  <HIPPO Compound ID>  (386) 
13764

>  <Energy>  (386) 
123.393679

>  <scratch_subdir>  (386) 
/opt/xchem-fragalysis-2/maxwin/BulkDock/SCRATCH/511032/C13764-P58

$$$$
Fc1cc(N2CCNCC2)c2nnc(C3CC3)n2c1
     RDKit          3D

 19 22  0  0  0  0  0  0  0  0999 V2000
   -9.9144    3.3241  -17.9433 F   0  0  0  0  0  0  0  0  0  0  0  0
   -8.8691    4.0014  -17.4391 C   0  0  0  0  0  0  0  0  0  0  0  0
   -7.9039    4.5683  -18.3487 C   0  0  0  0  0  0  0  0  0  0  0  0
   -6.8427    5.2967  -17.9236 C   0  0  0  0  0  0  0  0  0  0  0  0
   -6.0142    5.9725  -18.8110 N   0  0  0  0  0  0  0  0  0  0  0  0
   -5.4540    7.3069  -18.5604 C   0  0  0  0  0  0  0  0  0  0  0  0
   -3.9126    7.2804  -18.5337 C   0  0  0  0  0  0  0  0  0  0  0  0
   -3.3089    6.6287  -19.7204 N   0  0  0  0  0  0  0  0  0  0  0  0
   -3.8895    5.2713  -19.8113 C   0  0  0  0  0  0  0  0  0  0  0  0
   -5.4245    5.2952  -19.9620 C   0  0  0  0  0  0  0  0  0  0  0  0
   -6.6475    5.4019  -16.5056 C   0  0  0  0  0  0  0  0  0  0  0  0
   -5.6855    5.9311  -15.7743 N   0  0  0  0  0  0  0  0  0  0  0  0
   -6.0880    5.8959  -14.4628 N   0  0  0  0  0  0  0  0  0  0  0  0
   -7.2809    5.3408  -14.4266 C   0  0  0  0  0  0  0  0  0  0  0  0
   -8.2298    5.4305  -13.2059 C   0  0  0  0  0  0  0  0  0  0  0  0
   -7.8143    6.1377  -11.9479 C   0  0  0  0  0  0  0  0  0  0  0  0
   -8.7311    6.8299  -12.9097 C   0  0  0  0  0  0  0  0  0  0  0  0
   -7.6326    4.9010  -15.6761 N   0  0  0  0  0  0  0  0  0  0  0  0
   -8.7378    4.1997  -16.1247 C   0  0  0  0  0  0  0  0  0  0  0  0
  1  2  1  0
  2  3  1  0
  3  4  2  0
  4  5  1  0
  5  6  1  0
  6  7  1  0
  7  8  1  0
  8  9  1  0
  9 10  1  0
  4 11  1  0
 11 12  2  0
 12 13  1  0
 13 14  2  0
 14 15  1  0
 15 16  1  0
 16 17  1  0
 14 18  1  0
 18 19  1  0
 19  2  2  0
 10  5  1  0
 18 11  1  0
 17 15  1  0
M  END
>  <inchikey>  (387) 
KOZZEDKYOIWFIV-UHFFFAOYSA-N

>  <alias>  (387) 
Fc1cc(N2CCNCC2)c2nnc(C3CC3)n2c1

>  <tags>  (387) 
{'openbind_xx01zvns2b_c1_knitwork_pure', 'fragmenstein_placed'}

>  <HIPPO Pose ID>  (387) 
51956

>  <ref_pdb>  (387) 
35

>  <smiles>  (387) 
C13765-P58

>  <fragmenstein_runtime>  (387) 
1.674107

>  <fragmenstein_outcome>  (387) 
acceptable

>  <fragmenstein_mode>  (387) 
expansion

>  <fragmenstein_error>  (387) 


>  <HIPPO Compound ID>  (387) 
3197

>  <Energy>  (387) 
119.168673

>  <scratch_subdir>  (387) 
/opt/xchem-fragalysis-2/maxwin/BulkDock/SCRATCH/511032/C13765-P58

$$$$
Cc1cc(N2CCNCC2)c2nnc(C3CC3)n2c1
     RDKit          3D

 19 22  0  0  0  0  0  0  0  0999 V2000
   -9.8731    3.9261  -18.2172 C   0  0  0  0  0  0  0  0  0  0  0  0
   -8.6695    4.3704  -17.4740 C   0  0  0  0  0  0  0  0  0  0  0  0
   -7.5411    4.8345  -18.2666 C   0  0  0  0  0  0  0  0  0  0  0  0
   -6.4107    5.3421  -17.7232 C   0  0  0  0  0  0  0  0  0  0  0  0
   -5.3597    5.8589  -18.4919 N   0  0  0  0  0  0  0  0  0  0  0  0
   -5.6609    6.9385  -19.4540 C   0  0  0  0  0  0  0  0  0  0  0  0
   -4.3824    7.4976  -20.1064 C   0  0  0  0  0  0  0  0  0  0  0  0
   -3.5716    6.4446  -20.7633 N   0  0  0  0  0  0  0  0  0  0  0  0
   -3.2195    5.4676  -19.7135 C   0  0  0  0  0  0  0  0  0  0  0  0
   -4.4513    4.8441  -19.0454 C   0  0  0  0  0  0  0  0  0  0  0  0
   -6.3085    5.3353  -16.2952 C   0  0  0  0  0  0  0  0  0  0  0  0
   -5.3471    5.6861  -15.4630 N   0  0  0  0  0  0  0  0  0  0  0  0
   -5.8566    5.6286  -14.1850 N   0  0  0  0  0  0  0  0  0  0  0  0
   -7.1106    5.2406  -14.2744 C   0  0  0  0  0  0  0  0  0  0  0  0
   -8.1499    5.3748  -13.1326 C   0  0  0  0  0  0  0  0  0  0  0  0
   -7.8399    6.1599  -11.8905 C   0  0  0  0  0  0  0  0  0  0  0  0
   -8.7039    6.7740  -12.9490 C   0  0  0  0  0  0  0  0  0  0  0  0
   -7.4143    4.9294  -15.5731 N   0  0  0  0  0  0  0  0  0  0  0  0
   -8.5793    4.4349  -16.1376 C   0  0  0  0  0  0  0  0  0  0  0  0
  1  2  1  0
  2  3  1  0
  3  4  2  0
  4  5  1  0
  5  6  1  0
  6  7  1  0
  7  8  1  0
  8  9  1  0
  9 10  1  0
  4 11  1  0
 11 12  2  0
 12 13  1  0
 13 14  2  0
 14 15  1  0
 15 16  1  0
 16 17  1  0
 14 18  1  0
 18 19  1  0
 19  2  2  0
 10  5  1  0
 18 11  1  0
 17 15  1  0
M  END
>  <inchikey>  (388) 
NPGGGTNXYOTHCU-UHFFFAOYSA-N

>  <alias>  (388) 
Cc1cc(N2CCNCC2)c2nnc(C3CC3)n2c1

>  <tags>  (388) 
{'openbind_xx01zvns2b_c1_knitwork_pure', 'fragmenstein_placed'}

>  <HIPPO Pose ID>  (388) 
51957

>  <ref_pdb>  (388) 
35

>  <smiles>  (388) 
C13766-P58

>  <fragmenstein_runtime>  (388) 
1.823159

>  <fragmenstein_outcome>  (388) 
acceptable

>  <fragmenstein_mode>  (388) 
expansion

>  <fragmenstein_error>  (388) 


>  <HIPPO Compound ID>  (388) 
497

>  <Energy>  (388) 
142.354355

>  <scratch_subdir>  (388) 
/opt/xchem-fragalysis-2/maxwin/BulkDock/SCRATCH/511032/C13766-P58

$$$$
Clc1cccn2c(CN3CCNCC3)nnc12
     RDKit          3D

 17 19  0  0  0  0  0  0  0  0999 V2000
   -5.4807    5.1408  -19.2453 Cl  0  0  0  0  0  0  0  0  0  0  0  0
   -6.7565    4.8192  -18.1423 C   0  0  0  0  0  0  0  0  0  0  0  0
   -7.9549    4.3695  -18.5601 C   0  0  0  0  0  0  0  0  0  0  0  0
   -9.0188    4.0604  -17.6202 C   0  0  0  0  0  0  0  0  0  0  0  0
   -8.7785    4.2013  -16.3065 C   0  0  0  0  0  0  0  0  0  0  0  0
   -7.5405    4.6786  -15.8807 N   0  0  0  0  0  0  0  0  0  0  0  0
   -7.0438    4.9557  -14.6246 C   0  0  0  0  0  0  0  0  0  0  0  0
   -7.7812    4.7304  -13.3434 C   0  0  0  0  0  0  0  0  0  0  0  0
   -7.7210    5.8997  -12.4581 N   0  0  0  0  0  0  0  0  0  0  0  0
   -8.5225    7.0375  -12.9073 C   0  0  0  0  0  0  0  0  0  0  0  0
   -8.5909    8.2245  -11.9099 C   0  0  0  0  0  0  0  0  0  0  0  0
   -7.8015    8.0629  -10.6867 N   0  0  0  0  0  0  0  0  0  0  0  0
   -8.0590    6.7515  -10.0849 C   0  0  0  0  0  0  0  0  0  0  0  0
   -7.9442    5.5469  -11.0538 C   0  0  0  0  0  0  0  0  0  0  0  0
   -5.8160    5.4320  -14.7432 N   0  0  0  0  0  0  0  0  0  0  0  0
   -5.4895    5.4759  -16.0745 N   0  0  0  0  0  0  0  0  0  0  0  0
   -6.5167    5.0158  -16.7557 C   0  0  0  0  0  0  0  0  0  0  0  0
  1  2  1  0
  2  3  2  0
  3  4  1  0
  4  5  2  0
  5  6  1  0
  6  7  1  0
  7  8  1  0
  8  9  1  0
  9 10  1  0
 10 11  1  0
 11 12  1  0
 12 13  1  0
 13 14  1  0
  7 15  2  0
 15 16  1  0
 16 17  2  0
 17  2  1  0
 17  6  1  0
 14  9  1  0
M  END
>  <inchikey>  (389) 
BDQFEXAAQFEPNQ-UHFFFAOYSA-N

>  <alias>  (389) 
Clc1cccn2c(CN3CCNCC3)nnc12

>  <tags>  (389) 
{'openbind_xx01zvns2b_c1_knitwork_pure', 'fragmenstein_placed'}

>  <HIPPO Pose ID>  (389) 
51965

>  <ref_pdb>  (389) 
35

>  <smiles>  (389) 
C13779-P58

>  <fragmenstein_runtime>  (389) 
1.954433

>  <fragmenstein_outcome>  (389) 
acceptable

>  <fragmenstein_mode>  (389) 
expansion

>  <fragmenstein_error>  (389) 


>  <HIPPO Compound ID>  (389) 
780

>  <Energy>  (389) 
111.392406

>  <scratch_subdir>  (389) 
/opt/xchem-fragalysis-2/maxwin/BulkDock/SCRATCH/511032/C13779-P58

$$$$
Brc1cccn2c(CN3CCNCC3)nnc12
     RDKit          3D

 17 19  0  0  0  0  0  0  0  0999 V2000
   -5.6214    6.2256  -19.1036 Br  0  0  0  0  0  0  0  0  0  0  0  0
   -6.8024    5.2587  -18.0342 C   0  0  0  0  0  0  0  0  0  0  0  0
   -7.8557    4.5839  -18.5370 C   0  0  0  0  0  0  0  0  0  0  0  0
   -8.8733    4.0002  -17.6832 C   0  0  0  0  0  0  0  0  0  0  0  0
   -8.7401    4.1174  -16.3538 C   0  0  0  0  0  0  0  0  0  0  0  0
   -7.6260    4.7692  -15.8307 N   0  0  0  0  0  0  0  0  0  0  0  0
   -7.2593    5.0628  -14.5333 C   0  0  0  0  0  0  0  0  0  0  0  0
   -8.1149    4.7867  -13.3372 C   0  0  0  0  0  0  0  0  0  0  0  0
   -8.3212    5.9281  -12.4339 N   0  0  0  0  0  0  0  0  0  0  0  0
   -8.7283    7.1757  -13.0810 C   0  0  0  0  0  0  0  0  0  0  0  0
   -9.0144    8.3408  -12.0941 C   0  0  0  0  0  0  0  0  0  0  0  0
   -8.4185    8.1987  -10.7600 N   0  0  0  0  0  0  0  0  0  0  0  0
   -7.1188    7.5337  -10.8588 C   0  0  0  0  0  0  0  0  0  0  0  0
   -7.2004    6.1246  -11.4985 C   0  0  0  0  0  0  0  0  0  0  0  0
   -6.0831    5.6654  -14.5447 N   0  0  0  0  0  0  0  0  0  0  0  0
   -5.6978    5.8433  -15.8491 N   0  0  0  0  0  0  0  0  0  0  0  0
   -6.6299    5.3259  -16.6215 C   0  0  0  0  0  0  0  0  0  0  0  0
  1  2  1  0
  2  3  2  0
  3  4  1  0
  4  5  2  0
  5  6  1  0
  6  7  1  0
  7  8  1  0
  8  9  1  0
  9 10  1  0
 10 11  1  0
 11 12  1  0
 12 13  1  0
 13 14  1  0
  7 15  2  0
 15 16  1  0
 16 17  2  0
 17  2  1  0
 17  6  1  0
 14  9  1  0
M  END
>  <inchikey>  (390) 
PPWSBRLOPJRCEV-UHFFFAOYSA-N

>  <alias>  (390) 
Brc1cccn2c(CN3CCNCC3)nnc12

>  <tags>  (390) 
{'openbind_xx01zvns2b_c1_knitwork_pure', 'fragmenstein_placed'}

>  <HIPPO Pose ID>  (390) 
51967

>  <ref_pdb>  (390) 
35

>  <smiles>  (390) 
C13785-P58

>  <fragmenstein_runtime>  (390) 
1.937297

>  <fragmenstein_outcome>  (390) 
acceptable

>  <fragmenstein_mode>  (390) 
expansion

>  <fragmenstein_error>  (390) 


>  <HIPPO Compound ID>  (390) 
8907

>  <Energy>  (390) 
107.68913

>  <scratch_subdir>  (390) 
/opt/xchem-fragalysis-2/maxwin/BulkDock/SCRATCH/511032/C13785-P58

$$$$
c1cnc2c(Nc3nccs3)cccc2c1
     RDKit          3D

 16 18  0  0  0  0  0  0  0  0999 V2000
   -5.4248    4.9401  -13.9383 C   0  0  0  0  0  0  0  0  0  0  0  0
   -4.5280    5.1168  -14.9670 C   0  0  0  0  0  0  0  0  0  0  0  0
   -4.8686    5.0796  -16.2703 N   0  0  0  0  0  0  0  0  0  0  0  0
   -6.1574    4.8654  -16.6266 C   0  0  0  0  0  0  0  0  0  0  0  0
   -6.5732    4.8015  -17.9780 C   0  0  0  0  0  0  0  0  0  0  0  0
   -5.7456    5.0433  -19.1190 N   0  0  0  0  0  0  0  0  0  0  0  0
   -4.4536    5.4359  -19.1685 C   0  0  0  0  0  0  0  0  0  0  0  0
   -3.5474    4.8097  -19.8976 N   0  0  0  0  0  0  0  0  0  0  0  0
   -2.3120    5.4010  -19.7409 C   0  0  0  0  0  0  0  0  0  0  0  0
   -2.2979    6.5628  -19.0062 C   0  0  0  0  0  0  0  0  0  0  0  0
   -3.8823    6.9181  -18.4750 S   0  0  0  0  0  0  0  0  0  0  0  0
   -7.9299    4.5321  -18.2697 C   0  0  0  0  0  0  0  0  0  0  0  0
   -8.8699    4.3243  -17.2693 C   0  0  0  0  0  0  0  0  0  0  0  0
   -8.4705    4.3907  -15.9453 C   0  0  0  0  0  0  0  0  0  0  0  0
   -7.1346    4.6565  -15.6188 C   0  0  0  0  0  0  0  0  0  0  0  0
   -6.7488    4.7001  -14.2726 C   0  0  0  0  0  0  0  0  0  0  0  0
  1  2  2  0
  2  3  1  0
  3  4  2  0
  4  5  1  0
  5  6  1  0
  6  7  1  0
  7  8  2  0
  8  9  1  0
  9 10  2  0
 10 11  1  0
  5 12  2  0
 12 13  1  0
 13 14  2  0
 14 15  1  0
 15 16  2  0
 16  1  1  0
 15  4  1  0
 11  7  1  0
M  END
>  <inchikey>  (391) 
ABKKUBSEGBFWKP-UHFFFAOYSA-N

>  <alias>  (391) 
c1cnc2c(Nc3nccs3)cccc2c1

>  <tags>  (391) 
{'openbind_xx01zvns2b_c1_knitwork_pure', 'fragmenstein_placed'}

>  <HIPPO Pose ID>  (391) 
52035

>  <ref_pdb>  (391) 
35

>  <smiles>  (391) 
C14091-P94

>  <fragmenstein_runtime>  (391) 
1.004054

>  <fragmenstein_outcome>  (391) 
acceptable

>  <fragmenstein_mode>  (391) 
expansion

>  <fragmenstein_error>  (391) 


>  <HIPPO Compound ID>  (391) 
14500

>  <Energy>  (391) 
49.288163

>  <scratch_subdir>  (391) 
/opt/xchem-fragalysis-2/maxwin/BulkDock/SCRATCH/511032/C14091-P94

$$$$
NCc1cc(-n2cccn2)nc2ccccc12
     RDKit          3D

 17 19  0  0  0  0  0  0  0  0999 V2000
   -1.6193    8.9059   -9.9814 N   0  0  0  0  0  0  0  0  0  0  0  0
   -0.9622    8.2096  -11.0780 C   0  0  0  0  0  0  0  0  0  0  0  0
   -1.9073    8.0172  -12.2395 C   0  0  0  0  0  0  0  0  0  0  0  0
   -2.7702    6.9081  -12.2009 C   0  0  0  0  0  0  0  0  0  0  0  0
   -3.6574    6.6937  -13.2475 C   0  0  0  0  0  0  0  0  0  0  0  0
   -4.5433    5.5623  -13.2258 N   0  0  0  0  0  0  0  0  0  0  0  0
   -4.6604    4.5837  -12.2550 C   0  0  0  0  0  0  0  0  0  0  0  0
   -5.6448    3.7154  -12.6653 C   0  0  0  0  0  0  0  0  0  0  0  0
   -6.0783    4.2313  -13.8932 C   0  0  0  0  0  0  0  0  0  0  0  0
   -5.4187    5.3346  -14.2473 N   0  0  0  0  0  0  0  0  0  0  0  0
   -3.7193    7.5342  -14.3120 N   0  0  0  0  0  0  0  0  0  0  0  0
   -2.9213    8.6088  -14.3496 C   0  0  0  0  0  0  0  0  0  0  0  0
   -3.0312    9.4537  -15.4451 C   0  0  0  0  0  0  0  0  0  0  0  0
   -2.2526   10.6045  -15.5729 C   0  0  0  0  0  0  0  0  0  0  0  0
   -1.3395   10.9253  -14.5804 C   0  0  0  0  0  0  0  0  0  0  0  0
   -1.2084   10.0908  -13.4700 C   0  0  0  0  0  0  0  0  0  0  0  0
   -1.9891    8.9157  -13.3337 C   0  0  0  0  0  0  0  0  0  0  0  0
  1  2  1  0
  2  3  1  0
  3  4  2  0
  4  5  1  0
  5  6  1  0
  6  7  1  0
  7  8  2  0
  8  9  1  0
  9 10  2  0
  5 11  2  0
 11 12  1  0
 12 13  2  0
 13 14  1  0
 14 15  2  0
 15 16  1  0
 16 17  2  0
 17  3  1  0
 10  6  1  0
 17 12  1  0
M  END
>  <inchikey>  (392) 
QCRQWROCTYVPLG-UHFFFAOYSA-N

>  <alias>  (392) 
NCc1cc(-n2cccn2)nc2ccccc12

>  <tags>  (392) 
{'openbind_xx01zvns2b_c1_knitwork_pure', 'fragmenstein_placed'}

>  <HIPPO Pose ID>  (392) 
52061

>  <ref_pdb>  (392) 
35

>  <smiles>  (392) 
C992-P94

>  <fragmenstein_runtime>  (392) 
3.914135

>  <fragmenstein_outcome>  (392) 
acceptable

>  <fragmenstein_mode>  (392) 
expansion

>  <fragmenstein_error>  (392) 


>  <HIPPO Compound ID>  (392) 
626

>  <Energy>  (392) 
78.477714

>  <scratch_subdir>  (392) 
/opt/xchem-fragalysis-2/maxwin/BulkDock/SCRATCH/511032/C992-P94

$$$$
Nc1cccc2c(NCc3cn[nH]c3)ccnc12
     RDKit          3D

 18 20  0  0  0  0  0  0  0  0999 V2000
   -6.0779    5.0062  -19.3366 N   0  0  0  0  0  0  0  0  0  0  0  0
   -6.8492    4.7366  -18.1850 C   0  0  0  0  0  0  0  0  0  0  0  0
   -8.2198    4.4957  -18.3373 C   0  0  0  0  0  0  0  0  0  0  0  0
   -9.0491    4.4288  -17.2322 C   0  0  0  0  0  0  0  0  0  0  0  0
   -8.5142    4.6682  -15.9724 C   0  0  0  0  0  0  0  0  0  0  0  0
   -7.1350    4.9179  -15.7803 C   0  0  0  0  0  0  0  0  0  0  0  0
   -6.5545    5.2181  -14.5213 C   0  0  0  0  0  0  0  0  0  0  0  0
   -7.3012    5.3370  -13.3273 N   0  0  0  0  0  0  0  0  0  0  0  0
   -7.9238    4.1003  -12.8301 C   0  0  0  0  0  0  0  0  0  0  0  0
   -8.0775    4.0966  -11.3479 C   0  0  0  0  0  0  0  0  0  0  0  0
   -8.0169    2.9882  -10.4808 C   0  0  0  0  0  0  0  0  0  0  0  0
   -8.1941    3.3261   -9.2029 N   0  0  0  0  0  0  0  0  0  0  0  0
   -8.3774    4.6498   -9.2464 N   0  0  0  0  0  0  0  0  0  0  0  0
   -8.3055    5.1660  -10.5039 C   0  0  0  0  0  0  0  0  0  0  0  0
   -5.1801    5.4640  -14.4483 C   0  0  0  0  0  0  0  0  0  0  0  0
   -4.4327    5.4188  -15.6036 C   0  0  0  0  0  0  0  0  0  0  0  0
   -4.9525    5.1690  -16.8156 N   0  0  0  0  0  0  0  0  0  0  0  0
   -6.2851    4.9354  -16.9115 C   0  0  0  0  0  0  0  0  0  0  0  0
  1  2  1  0
  2  3  2  0
  3  4  1  0
  4  5  2  0
  5  6  1  0
  6  7  2  0
  7  8  1  0
  8  9  1  0
  9 10  1  0
 10 11  1  0
 11 12  2  0
 12 13  1  0
 13 14  1  0
  7 15  1  0
 15 16  2  0
 16 17  1  0
 17 18  2  0
 18  2  1  0
 18  6  1  0
 14 10  2  0
M  END
>  <inchikey>  (393) 
KZPXNHAIHAHCDE-UHFFFAOYSA-N

>  <alias>  (393) 
Nc1cccc2c(NCc3cn[nH]c3)ccnc12

>  <tags>  (393) 
{'openbind_xx01zvns2b_c1_knitwork_pure', 'fragmenstein_placed'}

>  <HIPPO Pose ID>  (393) 
52076

>  <ref_pdb>  (393) 
35

>  <smiles>  (393) 
C1024-P94

>  <fragmenstein_runtime>  (393) 
1.321727

>  <fragmenstein_outcome>  (393) 
acceptable

>  <fragmenstein_mode>  (393) 
expansion

>  <fragmenstein_error>  (393) 


>  <HIPPO Compound ID>  (393) 
3739

>  <Energy>  (393) 
73.184003

>  <scratch_subdir>  (393) 
/opt/xchem-fragalysis-2/maxwin/BulkDock/SCRATCH/511032/C1024-P94

$$$$
COc1cc(-c2cn[nH]c2)c2ccccc2n1
     RDKit          3D

 17 19  0  0  0  0  0  0  0  0999 V2000
   -2.5164    5.8366  -16.1336 C   0  0  0  0  0  0  0  0  0  0  0  0
   -3.1810    5.5682  -14.9037 O   0  0  0  0  0  0  0  0  0  0  0  0
   -4.5233    5.2831  -15.0697 C   0  0  0  0  0  0  0  0  0  0  0  0
   -5.2408    5.0378  -13.9162 C   0  0  0  0  0  0  0  0  0  0  0  0
   -6.5986    4.7379  -14.0283 C   0  0  0  0  0  0  0  0  0  0  0  0
   -7.3201    4.4286  -12.7995 C   0  0  0  0  0  0  0  0  0  0  0  0
   -7.4211    3.2176  -12.0737 C   0  0  0  0  0  0  0  0  0  0  0  0
   -8.0775    3.3630  -10.9210 N   0  0  0  0  0  0  0  0  0  0  0  0
   -8.4535    4.6485  -10.9290 N   0  0  0  0  0  0  0  0  0  0  0  0
   -7.9879    5.3441  -12.0134 C   0  0  0  0  0  0  0  0  0  0  0  0
   -7.1924    4.6974  -15.3166 C   0  0  0  0  0  0  0  0  0  0  0  0
   -8.5550    4.4141  -15.5576 C   0  0  0  0  0  0  0  0  0  0  0  0
   -9.0674    4.3556  -16.8546 C   0  0  0  0  0  0  0  0  0  0  0  0
   -8.2298    4.5790  -17.9359 C   0  0  0  0  0  0  0  0  0  0  0  0
   -6.8873    4.8805  -17.7116 C   0  0  0  0  0  0  0  0  0  0  0  0
   -6.3529    4.9482  -16.4303 C   0  0  0  0  0  0  0  0  0  0  0  0
   -5.0493    5.2452  -16.3082 N   0  0  0  0  0  0  0  0  0  0  0  0
  1  2  1  0
  2  3  1  0
  3  4  2  0
  4  5  1  0
  5  6  1  0
  6  7  1  0
  7  8  2  0
  8  9  1  0
  9 10  1  0
  5 11  2  0
 11 12  1  0
 12 13  2  0
 13 14  1  0
 14 15  2  0
 15 16  1  0
 16 17  2  0
 17  3  1  0
 10  6  2  0
 16 11  1  0
M  END
>  <inchikey>  (394) 
RWUREWRDCWSDSE-UHFFFAOYSA-N

>  <alias>  (394) 
COc1cc(-c2cn[nH]c2)c2ccccc2n1

>  <tags>  (394) 
{'openbind_xx01zvns2b_c1_knitwork_pure', 'fragmenstein_placed'}

>  <HIPPO Pose ID>  (394) 
52079

>  <ref_pdb>  (394) 
35

>  <smiles>  (394) 
C1028-P94

>  <fragmenstein_runtime>  (394) 
3.910373

>  <fragmenstein_outcome>  (394) 
acceptable

>  <fragmenstein_mode>  (394) 
expansion

>  <fragmenstein_error>  (394) 


>  <HIPPO Compound ID>  (394) 
7133

>  <Energy>  (394) 
25.201584

>  <scratch_subdir>  (394) 
/opt/xchem-fragalysis-2/maxwin/BulkDock/SCRATCH/511032/C1028-P94

$$$$
c1ccc2nc(N3CCC[C@H](C4OCCO4)C3)ncc2c1
     RDKit          3D

 21 24  0  0  0  0  0  0  0  0999 V2000
   -6.9011    4.9556  -19.0672 C   0  0  0  0  0  0  0  0  0  0  0  0
   -8.1731    4.5712  -18.6527 C   0  0  0  0  0  0  0  0  0  0  0  0
   -8.4489    4.4350  -17.2946 C   0  0  0  0  0  0  0  0  0  0  0  0
   -7.4703    4.6614  -16.3397 C   0  0  0  0  0  0  0  0  0  0  0  0
   -7.7559    4.4845  -15.0479 N   0  0  0  0  0  0  0  0  0  0  0  0
   -6.7934    4.7127  -14.1422 C   0  0  0  0  0  0  0  0  0  0  0  0
   -7.0640    4.4728  -12.8175 N   0  0  0  0  0  0  0  0  0  0  0  0
   -8.2120    3.6538  -12.4710 C   0  0  0  0  0  0  0  0  0  0  0  0
   -8.2524    3.3971  -10.9690 C   0  0  0  0  0  0  0  0  0  0  0  0
   -8.1957    4.6849  -10.1401 C   0  0  0  0  0  0  0  0  0  0  0  0
   -7.4126    5.8311  -10.8133 C   0  0  2  0  0  0  0  0  0  0  0  0
   -8.3424    6.8710  -11.4597 C   0  0  0  0  0  0  0  0  0  0  0  0
   -9.0791    7.5550  -10.4263 O   0  0  0  0  0  0  0  0  0  0  0  0
   -9.2124    8.8821  -10.9234 C   0  0  0  0  0  0  0  0  0  0  0  0
   -7.8968    9.1002  -11.6163 C   0  0  0  0  0  0  0  0  0  0  0  0
   -7.6194    7.8454  -12.2349 O   0  0  0  0  0  0  0  0  0  0  0  0
   -6.3997    5.2778  -11.8131 C   0  0  0  0  0  0  0  0  0  0  0  0
   -5.5634    5.1478  -14.4669 N   0  0  0  0  0  0  0  0  0  0  0  0
   -5.2916    5.3031  -15.7707 C   0  0  0  0  0  0  0  0  0  0  0  0
   -6.2068    5.0668  -16.7730 C   0  0  0  0  0  0  0  0  0  0  0  0
   -5.9100    5.2146  -18.1340 C   0  0  0  0  0  0  0  0  0  0  0  0
  1  2  2  0
  2  3  1  0
  3  4  2  0
  4  5  1  0
  5  6  2  0
  6  7  1  0
  7  8  1  0
  8  9  1  0
  9 10  1  0
 10 11  1  0
 11 12  1  6
 12 13  1  0
 13 14  1  0
 14 15  1  0
 15 16  1  0
 11 17  1  0
  6 18  1  0
 18 19  2  0
 19 20  1  0
 20 21  2  0
 21  1  1  0
 20  4  1  0
 17  7  1  0
 16 12  1  0
M  END
>  <inchikey>  (395) 
JLNMPYNUCGJMNA-UHFFFAOYSA-N

>  <alias>  (395) 
c1ccc2nc(N3CCC[C@H](C4OCCO4)C3)ncc2c1

>  <tags>  (395) 
{'openbind_xx01zvns2b_c1_knitwork_pure', 'fragmenstein_placed'}

>  <HIPPO Pose ID>  (395) 
52135

>  <ref_pdb>  (395) 
35

>  <smiles>  (395) 
C14314-P56

>  <fragmenstein_runtime>  (395) 
2.808785

>  <fragmenstein_outcome>  (395) 
acceptable

>  <fragmenstein_mode>  (395) 
expansion

>  <fragmenstein_error>  (395) 


>  <HIPPO Compound ID>  (395) 
5852

>  <Energy>  (395) 
-27.229254

>  <scratch_subdir>  (395) 
/opt/xchem-fragalysis-2/maxwin/BulkDock/SCRATCH/511032/C14314-P56

$$$$
O=S(=O)(c1cccc2ncccc12)N1Cc2cccc(Cl)c2C1
     RDKit          3D

 23 26  0  0  0  0  0  0  0  0999 V2000
   -5.9496    5.1555  -12.9054 O   0  0  0  0  0  0  0  0  0  0  0  0
   -7.3360    4.9952  -13.2782 S   0  0  0  0  0  0  0  0  0  0  0  0
   -8.1317    3.9235  -12.7190 O   0  0  0  0  0  0  0  0  0  0  0  0
   -7.5103    4.9286  -15.0481 C   0  0  0  0  0  0  0  0  0  0  0  0
   -8.7246    4.4000  -15.5081 C   0  0  0  0  0  0  0  0  0  0  0  0
   -8.9374    4.2042  -16.8633 C   0  0  0  0  0  0  0  0  0  0  0  0
   -7.9274    4.5243  -17.7636 C   0  0  0  0  0  0  0  0  0  0  0  0
   -6.7102    5.0391  -17.3465 C   0  0  0  0  0  0  0  0  0  0  0  0
   -5.8180    5.3254  -18.3080 N   0  0  0  0  0  0  0  0  0  0  0  0
   -4.6142    5.8071  -17.9574 C   0  0  0  0  0  0  0  0  0  0  0  0
   -4.2505    6.0487  -16.6557 C   0  0  0  0  0  0  0  0  0  0  0  0
   -5.1820    5.7723  -15.6607 C   0  0  0  0  0  0  0  0  0  0  0  0
   -6.4655    5.2496  -15.9665 C   0  0  0  0  0  0  0  0  0  0  0  0
   -8.1012    6.4473  -12.7874 N   0  0  0  0  0  0  0  0  0  0  0  0
   -8.1190    6.5086  -11.2701 C   0  0  0  0  0  0  0  0  0  0  0  0
   -7.1452    7.5794  -10.9001 C   0  0  0  0  0  0  0  0  0  0  0  0
   -6.6787    7.9275   -9.6457 C   0  0  0  0  0  0  0  0  0  0  0  0
   -5.7779    8.9907   -9.5409 C   0  0  0  0  0  0  0  0  0  0  0  0
   -5.3634    9.6910  -10.6851 C   0  0  0  0  0  0  0  0  0  0  0  0
   -5.8479    9.3316  -11.9434 C   0  0  0  0  0  0  0  0  0  0  0  0
   -5.3499   10.2019  -13.3389 Cl  0  0  0  0  0  0  0  0  0  0  0  0
   -6.7331    8.2730  -12.0362 C   0  0  0  0  0  0  0  0  0  0  0  0
   -7.4091    7.7064  -13.2363 C   0  0  0  0  0  0  0  0  0  0  0  0
  1  2  2  0
  2  3  2  0
  2  4  1  0
  4  5  2  0
  5  6  1  0
  6  7  2  0
  7  8  1  0
  8  9  2  0
  9 10  1  0
 10 11  2  0
 11 12  1  0
 12 13  2  0
  2 14  1  0
 14 15  1  0
 15 16  1  0
 16 17  2  0
 17 18  1  0
 18 19  2  0
 19 20  1  0
 20 21  1  0
 20 22  2  0
 22 23  1  0
 13  4  1  0
 23 14  1  0
 13  8  1  0
 22 16  1  0
M  END
>  <inchikey>  (396) 
LPJGXSNANGMUHE-UHFFFAOYSA-N

>  <alias>  (396) 
O=S(=O)(c1cccc2ncccc12)N1Cc2cccc(Cl)c2C1

>  <tags>  (396) 
{'openbind_xx01zvns2b_c1_knitwork_pure', 'fragmenstein_placed'}

>  <HIPPO Pose ID>  (396) 
52436

>  <ref_pdb>  (396) 
35

>  <smiles>  (396) 
C15450-P268

>  <fragmenstein_runtime>  (396) 
12.184108

>  <fragmenstein_outcome>  (396) 
acceptable

>  <fragmenstein_mode>  (396) 
expansion

>  <fragmenstein_error>  (396) 


>  <HIPPO Compound ID>  (396) 
359

>  <Energy>  (396) 
-12.970856

>  <scratch_subdir>  (396) 
/opt/xchem-fragalysis-2/maxwin/BulkDock/SCRATCH/511032/C15450-P268

$$$$
CCn1c(=O)[nH]c2ccc(C(=O)NCc3ncc[nH]3)cc21
     RDKit          3D

 21 23  0  0  0  0  0  0  0  0999 V2000
   -4.0857    6.6117  -17.4294 C   0  0  0  0  0  0  0  0  0  0  0  0
   -4.3352    5.2134  -17.9701 C   0  0  0  0  0  0  0  0  0  0  0  0
   -5.7323    4.9092  -18.1014 N   0  0  0  0  0  0  0  0  0  0  0  0
   -6.3997    4.5864  -19.3003 C   0  0  0  0  0  0  0  0  0  0  0  0
   -5.9176    4.4709  -20.4111 O   0  0  0  0  0  0  0  0  0  0  0  0
   -7.7436    4.3764  -18.9667 N   0  0  0  0  0  0  0  0  0  0  0  0
   -7.8821    4.4718  -17.5945 C   0  0  0  0  0  0  0  0  0  0  0  0
   -8.9952    4.2892  -16.8222 C   0  0  0  0  0  0  0  0  0  0  0  0
   -8.7978    4.3564  -15.4409 C   0  0  0  0  0  0  0  0  0  0  0  0
   -7.5247    4.5609  -14.8711 C   0  0  0  0  0  0  0  0  0  0  0  0
   -7.3005    4.4791  -13.3975 C   0  0  0  0  0  0  0  0  0  0  0  0
   -6.5595    5.2402  -12.9151 O   0  0  0  0  0  0  0  0  0  0  0  0
   -8.1025    3.3277  -12.7630 N   0  0  0  0  0  0  0  0  0  0  0  0
   -8.0911    2.8064  -11.4156 C   0  0  0  0  0  0  0  0  0  0  0  0
   -8.2160    3.8148  -10.3339 C   0  0  0  0  0  0  0  0  0  0  0  0
   -8.7590    3.6100   -9.1480 N   0  0  0  0  0  0  0  0  0  0  0  0
   -8.5190    4.7397   -8.4203 C   0  0  0  0  0  0  0  0  0  0  0  0
   -7.8546    5.6724   -9.1755 C   0  0  0  0  0  0  0  0  0  0  0  0
   -7.6602    5.0691  -10.3859 N   0  0  0  0  0  0  0  0  0  0  0  0
   -6.4237    4.8190  -15.6868 C   0  0  0  0  0  0  0  0  0  0  0  0
   -6.6345    4.7673  -17.0457 C   0  0  0  0  0  0  0  0  0  0  0  0
  1  2  1  0
  2  3  1  0
  3  4  1  0
  4  5  2  0
  4  6  1  0
  6  7  1  0
  7  8  2  0
  8  9  1  0
  9 10  2  0
 10 11  1  0
 11 12  2  0
 11 13  1  0
 13 14  1  0
 14 15  1  0
 15 16  2  0
 16 17  1  0
 17 18  2  0
 18 19  1  0
 10 20  1  0
 20 21  2  0
 21  3  1  0
 21  7  1  0
 19 15  1  0
M  END
>  <inchikey>  (397) 
JTJVXZQZBORWHT-UHFFFAOYSA-N

>  <alias>  (397) 
CCn1c(=O)[nH]c2ccc(C(=O)NCc3ncc[nH]3)cc21

>  <tags>  (397) 
{'openbind_xx01zvns2b_c1_knitwork_pure', 'fragmenstein_placed'}

>  <HIPPO Pose ID>  (397) 
52453

>  <ref_pdb>  (397) 
35

>  <smiles>  (397) 
C15476-P91

>  <fragmenstein_runtime>  (397) 
5.639656

>  <fragmenstein_outcome>  (397) 
acceptable

>  <fragmenstein_mode>  (397) 
expansion

>  <fragmenstein_error>  (397) 


>  <HIPPO Compound ID>  (397) 
13977

>  <Energy>  (397) 
-14.180028

>  <scratch_subdir>  (397) 
/opt/xchem-fragalysis-2/maxwin/BulkDock/SCRATCH/511032/C15476-P91

$$$$
Cn1c(=O)[nH]c2ccc(C(=O)NCc3ncc[nH]3)cc21
     RDKit          3D

 20 22  0  0  0  0  0  0  0  0999 V2000
   -4.6257    5.1916  -18.5994 C   0  0  0  0  0  0  0  0  0  0  0  0
   -6.0060    4.8204  -18.5516 N   0  0  0  0  0  0  0  0  0  0  0  0
   -6.7614    4.2839  -19.6155 C   0  0  0  0  0  0  0  0  0  0  0  0
   -6.3938    3.9854  -20.7386 O   0  0  0  0  0  0  0  0  0  0  0  0
   -8.0583    4.0812  -19.1236 N   0  0  0  0  0  0  0  0  0  0  0  0
   -8.0690    4.3671  -17.7705 C   0  0  0  0  0  0  0  0  0  0  0  0
   -9.0874    4.2089  -16.8701 C   0  0  0  0  0  0  0  0  0  0  0  0
   -8.7544    4.4021  -15.5298 C   0  0  0  0  0  0  0  0  0  0  0  0
   -7.4420    4.7417  -15.1369 C   0  0  0  0  0  0  0  0  0  0  0  0
   -7.0685    4.7155  -13.6970 C   0  0  0  0  0  0  0  0  0  0  0  0
   -6.4287    5.5864  -13.2612 O   0  0  0  0  0  0  0  0  0  0  0  0
   -7.5778    3.4237  -13.0343 N   0  0  0  0  0  0  0  0  0  0  0  0
   -7.3286    2.8838  -11.7226 C   0  0  0  0  0  0  0  0  0  0  0  0
   -7.8557    3.7441  -10.6343 C   0  0  0  0  0  0  0  0  0  0  0  0
   -8.4326    3.3397   -9.5206 N   0  0  0  0  0  0  0  0  0  0  0  0
   -8.5765    4.4536   -8.7439 C   0  0  0  0  0  0  0  0  0  0  0  0
   -8.1143    5.5682   -9.3995 C   0  0  0  0  0  0  0  0  0  0  0  0
   -7.6655    5.1054  -10.6044 N   0  0  0  0  0  0  0  0  0  0  0  0
   -6.4490    5.0092  -16.0824 C   0  0  0  0  0  0  0  0  0  0  0  0
   -6.7919    4.7921  -17.3973 C   0  0  0  0  0  0  0  0  0  0  0  0
  1  2  1  0
  2  3  1  0
  3  4  2  0
  3  5  1  0
  5  6  1  0
  6  7  2  0
  7  8  1  0
  8  9  2  0
  9 10  1  0
 10 11  2  0
 10 12  1  0
 12 13  1  0
 13 14  1  0
 14 15  2  0
 15 16  1  0
 16 17  2  0
 17 18  1  0
  9 19  1  0
 19 20  2  0
 20  2  1  0
 20  6  1  0
 18 14  1  0
M  END
>  <inchikey>  (398) 
HHFJJIPUCAXJKO-UHFFFAOYSA-N

>  <alias>  (398) 
Cn1c(=O)[nH]c2ccc(C(=O)NCc3ncc[nH]3)cc21

>  <tags>  (398) 
{'openbind_xx01zvns2b_c1_knitwork_pure', 'fragmenstein_placed'}

>  <HIPPO Pose ID>  (398) 
52454

>  <ref_pdb>  (398) 
35

>  <smiles>  (398) 
C15477-P91

>  <fragmenstein_runtime>  (398) 
4.265979

>  <fragmenstein_outcome>  (398) 
acceptable

>  <fragmenstein_mode>  (398) 
expansion

>  <fragmenstein_error>  (398) 


>  <HIPPO Compound ID>  (398) 
13195

>  <Energy>  (398) 
-14.582161

>  <scratch_subdir>  (398) 
/opt/xchem-fragalysis-2/maxwin/BulkDock/SCRATCH/511032/C15477-P91

$$$$
O=c1[nH]c2ccc(S(=O)(=O)N3CC(c4ncc[nH]4)C3)cc2[nH]1
     RDKit          3D

 22 25  0  0  0  0  0  0  0  0999 V2000
   -6.2573    3.9319  -20.6610 O   0  0  0  0  0  0  0  0  0  0  0  0
   -6.6651    4.1777  -19.5361 C   0  0  0  0  0  0  0  0  0  0  0  0
   -7.9403    3.9164  -19.0042 N   0  0  0  0  0  0  0  0  0  0  0  0
   -7.9365    4.2445  -17.6514 C   0  0  0  0  0  0  0  0  0  0  0  0
   -8.9200    4.1087  -16.6990 C   0  0  0  0  0  0  0  0  0  0  0  0
   -8.5849    4.4528  -15.3792 C   0  0  0  0  0  0  0  0  0  0  0  0
   -7.2953    4.9396  -15.0698 C   0  0  0  0  0  0  0  0  0  0  0  0
   -6.8559    5.4118  -13.4183 S   0  0  0  0  0  0  0  0  0  0  0  0
   -7.2104    6.8132  -13.3016 O   0  0  0  0  0  0  0  0  0  0  0  0
   -5.4994    4.9684  -13.1784 O   0  0  0  0  0  0  0  0  0  0  0  0
   -7.8753    4.5539  -12.4048 N   0  0  0  0  0  0  0  0  0  0  0  0
   -7.6126    3.2444  -11.6882 C   0  0  0  0  0  0  0  0  0  0  0  0
   -8.7518    3.6198  -10.7296 C   0  0  0  0  0  0  0  0  0  0  0  0
   -8.7108    3.2388   -9.2331 C   0  0  0  0  0  0  0  0  0  0  0  0
   -9.3329    2.1825   -8.7574 N   0  0  0  0  0  0  0  0  0  0  0  0
   -9.2509    2.2823   -7.3938 C   0  0  0  0  0  0  0  0  0  0  0  0
   -8.6038    3.4396   -7.0331 C   0  0  0  0  0  0  0  0  0  0  0  0
   -8.2152    4.0070   -8.2131 N   0  0  0  0  0  0  0  0  0  0  0  0
   -8.3419    5.0685  -11.0844 C   0  0  0  0  0  0  0  0  0  0  0  0
   -6.3159    5.0967  -16.0597 C   0  0  0  0  0  0  0  0  0  0  0  0
   -6.6728    4.7377  -17.3357 C   0  0  0  0  0  0  0  0  0  0  0  0
   -5.9060    4.7370  -18.4937 N   0  0  0  0  0  0  0  0  0  0  0  0
  1  2  2  0
  2  3  1  0
  3  4  1  0
  4  5  2  0
  5  6  1  0
  6  7  2  0
  7  8  1  0
  8  9  2  0
  8 10  2  0
  8 11  1  0
 11 12  1  0
 12 13  1  0
 13 14  1  0
 14 15  2  0
 15 16  1  0
 16 17  2  0
 17 18  1  0
 13 19  1  0
  7 20  1  0
 20 21  2  0
 21 22  1  0
 22  2  1  0
 21  4  1  0
 19 11  1  0
 18 14  1  0
M  END
>  <inchikey>  (399) 
OTVCCCKXXVDVOA-UHFFFAOYSA-N

>  <alias>  (399) 
O=c1[nH]c2ccc(S(=O)(=O)N3CC(c4ncc[nH]4)C3)cc2[nH]1

>  <tags>  (399) 
{'openbind_xx01zvns2b_c1_knitwork_pure', 'fragmenstein_placed'}

>  <HIPPO Pose ID>  (399) 
52464

>  <ref_pdb>  (399) 
35

>  <smiles>  (399) 
C15491-P268

>  <fragmenstein_runtime>  (399) 
10.814239

>  <fragmenstein_outcome>  (399) 
acceptable

>  <fragmenstein_mode>  (399) 
expansion

>  <fragmenstein_error>  (399) 


>  <HIPPO Compound ID>  (399) 
9316

>  <Energy>  (399) 
-51.396514

>  <scratch_subdir>  (399) 
/opt/xchem-fragalysis-2/maxwin/BulkDock/SCRATCH/511032/C15491-P268

$$$$
CCn1c(=O)[nH]c2ccc(C(=O)N[C@H](C)Cc3c[nH]cn3)cc21
     RDKit          3D

 23 25  0  0  0  0  0  0  0  0999 V2000
   -4.2886    6.7712  -17.6684 C   0  0  0  0  0  0  0  0  0  0  0  0
   -4.3455    5.3247  -18.1300 C   0  0  0  0  0  0  0  0  0  0  0  0
   -5.6872    4.8300  -18.2853 N   0  0  0  0  0  0  0  0  0  0  0  0
   -6.2958    4.4130  -19.4909 C   0  0  0  0  0  0  0  0  0  0  0  0
   -5.7878    4.3654  -20.6009 O   0  0  0  0  0  0  0  0  0  0  0  0
   -7.6038    4.0167  -19.1533 N   0  0  0  0  0  0  0  0  0  0  0  0
   -7.7828    4.1643  -17.7846 C   0  0  0  0  0  0  0  0  0  0  0  0
   -8.8905    3.9201  -17.0115 C   0  0  0  0  0  0  0  0  0  0  0  0
   -8.7615    4.1421  -15.6311 C   0  0  0  0  0  0  0  0  0  0  0  0
   -7.5437    4.5851  -15.0648 C   0  0  0  0  0  0  0  0  0  0  0  0
   -7.3854    4.9337  -13.6180 C   0  0  0  0  0  0  0  0  0  0  0  0
   -6.6640    5.8170  -13.3722 O   0  0  0  0  0  0  0  0  0  0  0  0
   -8.2760    4.0840  -12.6911 N   0  0  0  0  0  0  0  0  0  0  0  0
   -8.5432    4.2043  -11.2613 C   0  0  2  0  0  0  0  0  0  0  0  0
   -8.2638    5.6304  -10.7854 C   0  0  0  0  0  0  0  0  0  0  0  0
   -7.8475    3.1373  -10.4144 C   0  0  0  0  0  0  0  0  0  0  0  0
   -8.4187    3.0283   -9.0345 C   0  0  0  0  0  0  0  0  0  0  0  0
   -8.9983    1.9364   -8.4257 C   0  0  0  0  0  0  0  0  0  0  0  0
   -9.2523    2.3209   -7.1403 N   0  0  0  0  0  0  0  0  0  0  0  0
   -8.8804    3.6285   -7.0265 C   0  0  0  0  0  0  0  0  0  0  0  0
   -8.3791    4.0890   -8.1495 N   0  0  0  0  0  0  0  0  0  0  0  0
   -6.4425    4.8410  -15.8887 C   0  0  0  0  0  0  0  0  0  0  0  0
   -6.5940    4.6359  -17.2394 C   0  0  0  0  0  0  0  0  0  0  0  0
  1  2  1  0
  2  3  1  0
  3  4  1  0
  4  5  2  0
  4  6  1  0
  6  7  1  0
  7  8  2  0
  8  9  1  0
  9 10  2  0
 10 11  1  0
 11 12  2  0
 11 13  1  0
 13 14  1  0
 14 15  1  1
 14 16  1  0
 16 17  1  0
 17 18  2  0
 18 19  1  0
 19 20  1  0
 20 21  2  0
 10 22  1  0
 22 23  2  0
 23  3  1  0
 23  7  1  0
 21 17  1  0
M  END
>  <inchikey>  (400) 
AOGXNCGBEHSVMC-UHFFFAOYSA-N

>  <alias>  (400) 
CCn1c(=O)[nH]c2ccc(C(=O)N[C@H](C)Cc3c[nH]cn3)cc21

>  <tags>  (400) 
{'openbind_xx01zvns2b_c1_knitwork_pure', 'fragmenstein_placed'}

>  <HIPPO Pose ID>  (400) 
52469

>  <ref_pdb>  (400) 
35

>  <smiles>  (400) 
C15500-P268

>  <fragmenstein_runtime>  (400) 
3.447496

>  <fragmenstein_outcome>  (400) 
acceptable

>  <fragmenstein_mode>  (400) 
expansion

>  <fragmenstein_error>  (400) 


>  <HIPPO Compound ID>  (400) 
10351

>  <Energy>  (400) 
2.672774

>  <scratch_subdir>  (400) 
/opt/xchem-fragalysis-2/maxwin/BulkDock/SCRATCH/511032/C15500-P268

$$$$
C[C@@H](Cc1c[nH]cn1)NC(=O)c1ccc2[nH]c(=O)n(C)c2c1
     RDKit          3D

 22 24  0  0  0  0  0  0  0  0999 V2000
   -7.9411    5.6853  -10.7535 C   0  0  0  0  0  0  0  0  0  0  0  0
   -7.6670    4.2701  -11.2581 C   0  0  1  0  0  0  0  0  0  0  0  0
   -8.6043    3.1936  -10.6764 C   0  0  0  0  0  0  0  0  0  0  0  0
   -8.7324    3.0915   -9.1916 C   0  0  0  0  0  0  0  0  0  0  0  0
   -8.9071    1.9456   -8.4450 C   0  0  0  0  0  0  0  0  0  0  0  0
   -9.0032    2.3517   -7.1451 N   0  0  0  0  0  0  0  0  0  0  0  0
   -8.9193    3.7126   -7.1436 C   0  0  0  0  0  0  0  0  0  0  0  0
   -8.7763    4.1905   -8.3591 N   0  0  0  0  0  0  0  0  0  0  0  0
   -7.7447    4.2568  -12.7297 N   0  0  0  0  0  0  0  0  0  0  0  0
   -7.1502    5.2252  -13.7737 C   0  0  0  0  0  0  0  0  0  0  0  0
   -6.5705    6.2281  -13.6314 O   0  0  0  0  0  0  0  0  0  0  0  0
   -7.4096    4.7949  -15.1818 C   0  0  0  0  0  0  0  0  0  0  0  0
   -8.6429    4.2435  -15.6032 C   0  0  0  0  0  0  0  0  0  0  0  0
   -8.8628    3.9024  -16.9477 C   0  0  0  0  0  0  0  0  0  0  0  0
   -7.8265    4.1152  -17.8242 C   0  0  0  0  0  0  0  0  0  0  0  0
   -7.7358    3.8262  -19.1809 N   0  0  0  0  0  0  0  0  0  0  0  0
   -6.4708    4.2297  -19.6506 C   0  0  0  0  0  0  0  0  0  0  0  0
   -6.0349    4.0744  -20.7817 O   0  0  0  0  0  0  0  0  0  0  0  0
   -5.8040    4.7990  -18.5440 N   0  0  0  0  0  0  0  0  0  0  0  0
   -4.4979    5.3836  -18.5434 C   0  0  0  0  0  0  0  0  0  0  0  0
   -6.6268    4.6928  -17.4201 C   0  0  0  0  0  0  0  0  0  0  0  0
   -6.3911    5.0471  -16.1122 C   0  0  0  0  0  0  0  0  0  0  0  0
  2  1  1  1
  2  3  1  0
  3  4  1  0
  4  5  2  0
  5  6  1  0
  6  7  1  0
  7  8  2  0
  2  9  1  0
  9 10  1  0
 10 11  2  0
 10 12  1  0
 12 13  2  0
 13 14  1  0
 14 15  2  0
 15 16  1  0
 16 17  1  0
 17 18  2  0
 17 19  1  0
 19 20  1  0
 19 21  1  0
 21 22  2  0
  8  4  1  0
 22 12  1  0
 21 15  1  0
M  END
>  <inchikey>  (401) 
YDGDNLZXEXYEBU-UHFFFAOYSA-N

>  <alias>  (401) 
C[C@@H](Cc1c[nH]cn1)NC(=O)c1ccc2[nH]c(=O)n(C)c2c1

>  <tags>  (401) 
{'openbind_xx01zvns2b_c1_knitwork_pure', 'fragmenstein_placed'}

>  <HIPPO Pose ID>  (401) 
52470

>  <ref_pdb>  (401) 
35

>  <smiles>  (401) 
C15501-P268

>  <fragmenstein_runtime>  (401) 
2.5894

>  <fragmenstein_outcome>  (401) 
acceptable

>  <fragmenstein_mode>  (401) 
expansion

>  <fragmenstein_error>  (401) 


>  <HIPPO Compound ID>  (401) 
2390

>  <Energy>  (401) 
4.932199

>  <scratch_subdir>  (401) 
/opt/xchem-fragalysis-2/maxwin/BulkDock/SCRATCH/511032/C15501-P268

$$$$
O=C(CCc1c[nH]cn1)Nc1ccc2[nH]c(=O)[nH]c2c1
     RDKit          3D

 20 22  0  0  0  0  0  0  0  0999 V2000
   -9.3429    5.8685  -12.8944 O   0  0  0  0  0  0  0  0  0  0  0  0
   -8.3213    5.3248  -12.7476 C   0  0  0  0  0  0  0  0  0  0  0  0
   -7.8139    4.9654  -11.3546 C   0  0  0  0  0  0  0  0  0  0  0  0
   -8.3650    3.5939  -10.9379 C   0  0  0  0  0  0  0  0  0  0  0  0
   -8.5510    3.4175   -9.4660 C   0  0  0  0  0  0  0  0  0  0  0  0
   -8.9402    2.2754   -8.7982 C   0  0  0  0  0  0  0  0  0  0  0  0
   -8.9498    2.6044   -7.4735 N   0  0  0  0  0  0  0  0  0  0  0  0
   -8.6029    3.9215   -7.3827 C   0  0  0  0  0  0  0  0  0  0  0  0
   -8.3562    4.4441   -8.5637 N   0  0  0  0  0  0  0  0  0  0  0  0
   -7.3275    4.7599  -13.7905 N   0  0  0  0  0  0  0  0  0  0  0  0
   -7.4269    4.6666  -15.1688 C   0  0  0  0  0  0  0  0  0  0  0  0
   -8.7135    4.4355  -15.7127 C   0  0  0  0  0  0  0  0  0  0  0  0
   -8.9120    4.2341  -17.0780 C   0  0  0  0  0  0  0  0  0  0  0  0
   -7.7945    4.3279  -17.8610 C   0  0  0  0  0  0  0  0  0  0  0  0
   -7.6586    4.1537  -19.2287 N   0  0  0  0  0  0  0  0  0  0  0  0
   -6.3189    4.3602  -19.5816 C   0  0  0  0  0  0  0  0  0  0  0  0
   -5.8145    4.2547  -20.6881 O   0  0  0  0  0  0  0  0  0  0  0  0
   -5.6368    4.6778  -18.3942 N   0  0  0  0  0  0  0  0  0  0  0  0
   -6.5353    4.6193  -17.3342 C   0  0  0  0  0  0  0  0  0  0  0  0
   -6.3067    4.7662  -15.9847 C   0  0  0  0  0  0  0  0  0  0  0  0
  1  2  2  0
  2  3  1  0
  3  4  1  0
  4  5  1  0
  5  6  2  0
  6  7  1  0
  7  8  1  0
  8  9  2  0
  2 10  1  0
 10 11  1  0
 11 12  2  0
 12 13  1  0
 13 14  2  0
 14 15  1  0
 15 16  1  0
 16 17  2  0
 16 18  1  0
 18 19  1  0
 19 20  2  0
  9  5  1  0
 20 11  1  0
 19 14  1  0
M  END
>  <inchikey>  (402) 
UFUUUCAFSXJZMO-UHFFFAOYSA-N

>  <alias>  (402) 
O=C(CCc1c[nH]cn1)Nc1ccc2[nH]c(=O)[nH]c2c1

>  <tags>  (402) 
{'openbind_xx01zvns2b_c1_knitwork_pure', 'fragmenstein_placed'}

>  <HIPPO Pose ID>  (402) 
52474

>  <ref_pdb>  (402) 
35

>  <smiles>  (402) 
C15514-P268

>  <fragmenstein_runtime>  (402) 
2.002076

>  <fragmenstein_outcome>  (402) 
acceptable

>  <fragmenstein_mode>  (402) 
expansion

>  <fragmenstein_error>  (402) 


>  <HIPPO Compound ID>  (402) 
10247

>  <Energy>  (402) 
-31.832952

>  <scratch_subdir>  (402) 
/opt/xchem-fragalysis-2/maxwin/BulkDock/SCRATCH/511032/C15514-P268

$$$$
O=c1[nH]c2ccccc2n1CCNS(=O)(=O)c1c[nH]cn1
     RDKit          3D

 21 23  0  0  0  0  0  0  0  0999 V2000
   -5.6404    4.6285  -20.3960 O   0  0  0  0  0  0  0  0  0  0  0  0
   -6.2614    4.6059  -19.3429 C   0  0  0  0  0  0  0  0  0  0  0  0
   -7.5927    4.2105  -19.1772 N   0  0  0  0  0  0  0  0  0  0  0  0
   -7.9131    4.2572  -17.8328 C   0  0  0  0  0  0  0  0  0  0  0  0
   -9.1042    3.9440  -17.2334 C   0  0  0  0  0  0  0  0  0  0  0  0
   -9.1306    4.0154  -15.8432 C   0  0  0  0  0  0  0  0  0  0  0  0
   -8.0096    4.3914  -15.0975 C   0  0  0  0  0  0  0  0  0  0  0  0
   -6.8177    4.7050  -15.7414 C   0  0  0  0  0  0  0  0  0  0  0  0
   -6.7871    4.6635  -17.1181 C   0  0  0  0  0  0  0  0  0  0  0  0
   -5.7778    4.9482  -18.0534 N   0  0  0  0  0  0  0  0  0  0  0  0
   -4.4382    5.4293  -17.8347 C   0  0  0  0  0  0  0  0  0  0  0  0
   -4.0940    6.1223  -16.5097 C   0  0  0  0  0  0  0  0  0  0  0  0
   -5.0495    7.2038  -16.2133 N   0  0  0  0  0  0  0  0  0  0  0  0
   -5.1133    7.7887  -14.6316 S   0  0  0  0  0  0  0  0  0  0  0  0
   -3.8166    7.6194  -14.0150 O   0  0  0  0  0  0  0  0  0  0  0  0
   -6.3503    7.3602  -14.0152 O   0  0  0  0  0  0  0  0  0  0  0  0
   -5.2916    9.5190  -14.7810 C   0  0  0  0  0  0  0  0  0  0  0  0
   -5.3608   10.4327  -13.7512 C   0  0  0  0  0  0  0  0  0  0  0  0
   -5.4777   11.6478  -14.3657 N   0  0  0  0  0  0  0  0  0  0  0  0
   -5.4778   11.4346  -15.7185 C   0  0  0  0  0  0  0  0  0  0  0  0
   -5.3720   10.1578  -16.0143 N   0  0  0  0  0  0  0  0  0  0  0  0
  1  2  2  0
  2  3  1  0
  3  4  1  0
  4  5  2  0
  5  6  1  0
  6  7  2  0
  7  8  1  0
  8  9  2  0
  9 10  1  0
 10 11  1  0
 11 12  1  0
 12 13  1  0
 13 14  1  0
 14 15  2  0
 14 16  2  0
 14 17  1  0
 17 18  2  0
 18 19  1  0
 19 20  1  0
 20 21  2  0
 10  2  1  0
 21 17  1  0
  9  4  1  0
M  END
>  <inchikey>  (403) 
UOYILUGWERTESY-UHFFFAOYSA-N

>  <alias>  (403) 
O=c1[nH]c2ccccc2n1CCNS(=O)(=O)c1c[nH]cn1

>  <tags>  (403) 
{'openbind_xx01zvns2b_c1_knitwork_pure', 'fragmenstein_placed'}

>  <HIPPO Pose ID>  (403) 
52475

>  <ref_pdb>  (403) 
35

>  <smiles>  (403) 
C15515-P268

>  <fragmenstein_runtime>  (403) 
1.920408

>  <fragmenstein_outcome>  (403) 
acceptable

>  <fragmenstein_mode>  (403) 
expansion

>  <fragmenstein_error>  (403) 


>  <HIPPO Compound ID>  (403) 
15515

>  <Energy>  (403) 
10.906648

>  <scratch_subdir>  (403) 
/opt/xchem-fragalysis-2/maxwin/BulkDock/SCRATCH/511032/C15515-P268

$$$$
O=C(Cc1c[nH]c2cc(Cl)ccc12)Nc1ccc2c(c1)CNC2
     RDKit          3D

 23 26  0  0  0  0  0  0  0  0999 V2000
   -1.7633    5.9821  -19.0604 O   0  0  0  0  0  0  0  0  0  0  0  0
   -2.7452    6.4779  -18.6550 C   0  0  0  0  0  0  0  0  0  0  0  0
   -2.9878    6.6027  -17.1506 C   0  0  0  0  0  0  0  0  0  0  0  0
   -4.3576    6.3911  -16.5662 C   0  0  0  0  0  0  0  0  0  0  0  0
   -4.7062    6.8469  -15.3034 C   0  0  0  0  0  0  0  0  0  0  0  0
   -5.9859    6.4617  -15.0280 N   0  0  0  0  0  0  0  0  0  0  0  0
   -6.5146    5.7985  -16.1047 C   0  0  0  0  0  0  0  0  0  0  0  0
   -7.7957    5.2655  -16.2715 C   0  0  0  0  0  0  0  0  0  0  0  0
   -8.0838    4.6672  -17.4956 C   0  0  0  0  0  0  0  0  0  0  0  0
   -9.6641    4.0730  -17.7696 Cl  0  0  0  0  0  0  0  0  0  0  0  0
   -7.1241    4.5542  -18.4891 C   0  0  0  0  0  0  0  0  0  0  0  0
   -5.8271    5.0312  -18.2771 C   0  0  0  0  0  0  0  0  0  0  0  0
   -5.5143    5.7073  -17.0780 C   0  0  0  0  0  0  0  0  0  0  0  0
   -3.9138    7.1725  -19.4162 N   0  0  0  0  0  0  0  0  0  0  0  0
   -4.0606    7.4700  -20.7647 C   0  0  0  0  0  0  0  0  0  0  0  0
   -5.3406    7.7810  -21.2504 C   0  0  0  0  0  0  0  0  0  0  0  0
   -5.5505    8.0546  -22.6080 C   0  0  0  0  0  0  0  0  0  0  0  0
   -4.4541    8.0463  -23.4455 C   0  0  0  0  0  0  0  0  0  0  0  0
   -3.1854    7.7434  -22.9600 C   0  0  0  0  0  0  0  0  0  0  0  0
   -2.9716    7.4304  -21.6293 C   0  0  0  0  0  0  0  0  0  0  0  0
   -2.2085    7.7843  -24.0831 C   0  0  0  0  0  0  0  0  0  0  0  0
   -2.9228    8.4525  -25.1999 N   0  0  0  0  0  0  0  0  0  0  0  0
   -4.3711    8.2758  -24.9157 C   0  0  0  0  0  0  0  0  0  0  0  0
  1  2  2  0
  2  3  1  0
  3  4  1  0
  4  5  2  0
  5  6  1  0
  6  7  1  0
  7  8  2  0
  8  9  1  0
  9 10  1  0
  9 11  2  0
 11 12  1  0
 12 13  2  0
  2 14  1  0
 14 15  1  0
 15 16  2  0
 16 17  1  0
 17 18  2  0
 18 19  1  0
 19 20  2  0
 19 21  1  0
 21 22  1  0
 22 23  1  0
 13  4  1  0
 20 15  1  0
 13  7  1  0
 23 18  1  0
M  END
>  <inchikey>  (404) 
HGVGSMFEOCNTGL-UHFFFAOYSA-N

>  <alias>  (404) 
O=C(Cc1c[nH]c2cc(Cl)ccc12)Nc1ccc2c(c1)CNC2

>  <tags>  (404) 
{'openbind_xx01zvns2b_c1_knitwork_pure', 'fragmenstein_placed'}

>  <HIPPO Pose ID>  (404) 
52531

>  <ref_pdb>  (404) 
35

>  <smiles>  (404) 
C1930-P5

>  <fragmenstein_runtime>  (404) 
2.396899

>  <fragmenstein_outcome>  (404) 
acceptable

>  <fragmenstein_mode>  (404) 
expansion

>  <fragmenstein_error>  (404) 


>  <HIPPO Compound ID>  (404) 
15530

>  <Energy>  (404) 
57.062931

>  <scratch_subdir>  (404) 
/opt/xchem-fragalysis-2/maxwin/BulkDock/SCRATCH/511032/C1930-P5

$$$$
Cc1ccc2c(CC(=O)Nc3ccc4c(c3)CNC4)c[nH]c2c1
     RDKit          3D

 23 26  0  0  0  0  0  0  0  0999 V2000
   -9.6395    4.2237  -17.4870 C   0  0  0  0  0  0  0  0  0  0  0  0
   -8.2317    4.7071  -17.3502 C   0  0  0  0  0  0  0  0  0  0  0  0
   -7.3214    4.4672  -18.3749 C   0  0  0  0  0  0  0  0  0  0  0  0
   -5.9912    4.8628  -18.2543 C   0  0  0  0  0  0  0  0  0  0  0  0
   -5.5886    5.6227  -17.1376 C   0  0  0  0  0  0  0  0  0  0  0  0
   -4.3507    6.2297  -16.7369 C   0  0  0  0  0  0  0  0  0  0  0  0
   -3.0142    6.0806  -17.3983 C   0  0  0  0  0  0  0  0  0  0  0  0
   -2.6722    6.8809  -18.6656 C   0  0  0  0  0  0  0  0  0  0  0  0
   -1.5645    7.2119  -18.8616 O   0  0  0  0  0  0  0  0  0  0  0  0
   -3.9412    7.0258  -19.5568 N   0  0  0  0  0  0  0  0  0  0  0  0
   -4.0826    7.5003  -20.8538 C   0  0  0  0  0  0  0  0  0  0  0  0
   -5.3598    7.4468  -21.4411 C   0  0  0  0  0  0  0  0  0  0  0  0
   -5.5550    7.7909  -22.7836 C   0  0  0  0  0  0  0  0  0  0  0  0
   -4.4512    8.1755  -23.5153 C   0  0  0  0  0  0  0  0  0  0  0  0
   -3.1909    8.2410  -22.9284 C   0  0  0  0  0  0  0  0  0  0  0  0
   -2.9869    7.9198  -21.5976 C   0  0  0  0  0  0  0  0  0  0  0  0
   -2.1999    8.6938  -23.9425 C   0  0  0  0  0  0  0  0  0  0  0  0
   -2.8923    8.5768  -25.2506 N   0  0  0  0  0  0  0  0  0  0  0  0
   -4.3472    8.5731  -24.9470 C   0  0  0  0  0  0  0  0  0  0  0  0
   -4.6026    6.8763  -15.5398 C   0  0  0  0  0  0  0  0  0  0  0  0
   -5.9052    6.6460  -15.1857 N   0  0  0  0  0  0  0  0  0  0  0  0
   -6.5315    5.8963  -16.1496 C   0  0  0  0  0  0  0  0  0  0  0  0
   -7.8450    5.4235  -16.2092 C   0  0  0  0  0  0  0  0  0  0  0  0
  1  2  1  0
  2  3  2  0
  3  4  1  0
  4  5  2  0
  5  6  1  0
  6  7  1  0
  7  8  1  0
  8  9  2  0
  8 10  1  0
 10 11  1  0
 11 12  2  0
 12 13  1  0
 13 14  2  0
 14 15  1  0
 15 16  2  0
 15 17  1  0
 17 18  1  0
 18 19  1  0
  6 20  2  0
 20 21  1  0
 21 22  1  0
 22 23  2  0
 23  2  1  0
 22  5  1  0
 16 11  1  0
 19 14  1  0
M  END
>  <inchikey>  (405) 
TZPGJCRKXCVWJW-UHFFFAOYSA-N

>  <alias>  (405) 
Cc1ccc2c(CC(=O)Nc3ccc4c(c3)CNC4)c[nH]c2c1

>  <tags>  (405) 
{'openbind_xx01zvns2b_c1_knitwork_pure', 'fragmenstein_placed'}

>  <HIPPO Pose ID>  (405) 
52532

>  <ref_pdb>  (405) 
35

>  <smiles>  (405) 
C1942-P5

>  <fragmenstein_runtime>  (405) 
2.24877

>  <fragmenstein_outcome>  (405) 
acceptable

>  <fragmenstein_mode>  (405) 
expansion

>  <fragmenstein_error>  (405) 


>  <HIPPO Compound ID>  (405) 
9739

>  <Energy>  (405) 
59.816504

>  <scratch_subdir>  (405) 
/opt/xchem-fragalysis-2/maxwin/BulkDock/SCRATCH/511032/C1942-P5

$$$$
COc1ccncc1CNC1=N[C@H]2CCCC[C@@H]2N1
     RDKit          3D

 19 21  0  0  0  0  0  0  0  0999 V2000
   -4.9810    5.3645  -15.9414 C   0  0  0  0  0  0  0  0  0  0  0  0
   -6.0402    6.0682  -16.5892 O   0  0  0  0  0  0  0  0  0  0  0  0
   -7.0199    5.1932  -16.9791 C   0  0  0  0  0  0  0  0  0  0  0  0
   -7.0598    4.8154  -18.3149 C   0  0  0  0  0  0  0  0  0  0  0  0
   -8.1129    4.0219  -18.7336 C   0  0  0  0  0  0  0  0  0  0  0  0
   -9.0935    3.5841  -17.9187 N   0  0  0  0  0  0  0  0  0  0  0  0
   -9.0336    3.9975  -16.6365 C   0  0  0  0  0  0  0  0  0  0  0  0
   -8.0430    4.8148  -16.1112 C   0  0  0  0  0  0  0  0  0  0  0  0
   -8.1884    5.3284  -14.7163 C   0  0  0  0  0  0  0  0  0  0  0  0
   -7.7815    4.3643  -13.7344 N   0  0  0  0  0  0  0  0  0  0  0  0
   -7.9079    4.5483  -12.4082 C   0  0  0  0  0  0  0  0  0  0  0  0
   -7.8836    3.5738  -11.5355 N   0  0  0  0  0  0  0  0  0  0  0  0
   -8.1114    4.3118  -10.2686 C   0  0  1  0  0  0  0  0  0  0  0  0
   -7.4211    3.7601   -9.0454 C   0  0  0  0  0  0  0  0  0  0  0  0
   -7.1121    4.8879   -8.0397 C   0  0  0  0  0  0  0  0  0  0  0  0
   -8.0382    6.1128   -8.1436 C   0  0  0  0  0  0  0  0  0  0  0  0
   -8.1354    6.7055   -9.5650 C   0  0  0  0  0  0  0  0  0  0  0  0
   -7.5843    5.7172  -10.5604 C   0  0  2  0  0  0  0  0  0  0  0  0
   -7.9621    5.8417  -11.9462 N   0  0  0  0  0  0  0  0  0  0  0  0
  1  2  1  0
  2  3  1  0
  3  4  2  0
  4  5  1  0
  5  6  2  0
  6  7  1  0
  7  8  2  0
  8  9  1  0
  9 10  1  0
 10 11  1  0
 11 12  2  0
 12 13  1  0
 13 14  1  1
 14 15  1  0
 15 16  1  0
 16 17  1  0
 18 17  1  1
 18 19  1  0
  8  3  1  0
 19 11  1  0
 18 13  1  0
M  END
>  <inchikey>  (406) 
MWGQGFPGASPQHX-UHFFFAOYSA-N

>  <alias>  (406) 
COc1ccncc1CNC1=N[C@H]2CCCC[C@@H]2N1

>  <tags>  (406) 
{'openbind_xx01zvns2b_c1_knitwork_pure', 'fragmenstein_placed'}

>  <HIPPO Pose ID>  (406) 
52581

>  <ref_pdb>  (406) 
35

>  <smiles>  (406) 
C2383-P86

>  <fragmenstein_runtime>  (406) 
6.722261

>  <fragmenstein_outcome>  (406) 
acceptable

>  <fragmenstein_mode>  (406) 
expansion

>  <fragmenstein_error>  (406) 


>  <HIPPO Compound ID>  (406) 
3973

>  <Energy>  (406) 
-58.130506

>  <scratch_subdir>  (406) 
/opt/xchem-fragalysis-2/maxwin/BulkDock/SCRATCH/511032/C2383-P86

$$$$
Clc1ccc2c(c1)CN(Cc1nc3ccccc3s1)C2
     RDKit          3D

 20 23  0  0  0  0  0  0  0  0999 V2000
    0.9374    6.6517  -23.6383 Cl  0  0  0  0  0  0  0  0  0  0  0  0
    0.2561    6.8587  -22.0704 C   0  0  0  0  0  0  0  0  0  0  0  0
    0.7778    7.8408  -21.2135 C   0  0  0  0  0  0  0  0  0  0  0  0
    0.2550    8.0066  -19.9279 C   0  0  0  0  0  0  0  0  0  0  0  0
   -0.7911    7.1871  -19.5400 C   0  0  0  0  0  0  0  0  0  0  0  0
   -1.3138    6.2196  -20.3981 C   0  0  0  0  0  0  0  0  0  0  0  0
   -0.7968    6.0362  -21.6688 C   0  0  0  0  0  0  0  0  0  0  0  0
   -2.3954    5.4621  -19.6880 C   0  0  0  0  0  0  0  0  0  0  0  0
   -2.7158    6.3117  -18.5130 N   0  0  0  0  0  0  0  0  0  0  0  0
   -3.1702    5.5496  -17.3437 C   0  0  0  0  0  0  0  0  0  0  0  0
   -4.6576    5.3129  -17.2433 C   0  0  0  0  0  0  0  0  0  0  0  0
   -5.2913    5.2461  -16.0875 N   0  0  0  0  0  0  0  0  0  0  0  0
   -6.6114    4.8783  -16.2941 C   0  0  0  0  0  0  0  0  0  0  0  0
   -7.5747    4.6528  -15.2916 C   0  0  0  0  0  0  0  0  0  0  0  0
   -8.8703    4.2726  -15.6525 C   0  0  0  0  0  0  0  0  0  0  0  0
   -9.2175    4.1209  -16.9917 C   0  0  0  0  0  0  0  0  0  0  0  0
   -8.2796    4.3351  -18.0027 C   0  0  0  0  0  0  0  0  0  0  0  0
   -6.9838    4.7174  -17.6278 C   0  0  0  0  0  0  0  0  0  0  0  0
   -5.6361    5.0557  -18.6260 S   0  0  0  0  0  0  0  0  0  0  0  0
   -1.4986    7.1015  -18.2253 C   0  0  0  0  0  0  0  0  0  0  0  0
  1  2  1  0
  2  3  2  0
  3  4  1  0
  4  5  2  0
  5  6  1  0
  6  7  2  0
  6  8  1  0
  8  9  1  0
  9 10  1  0
 10 11  1  0
 11 12  2  0
 12 13  1  0
 13 14  2  0
 14 15  1  0
 15 16  2  0
 16 17  1  0
 17 18  2  0
 18 19  1  0
  9 20  1  0
  7  2  1  0
 19 11  1  0
 20  5  1  0
 18 13  1  0
M  END
>  <inchikey>  (407) 
YRRVQBXIPNQULA-UHFFFAOYSA-N

>  <alias>  (407) 
Clc1ccc2c(c1)CN(Cc1nc3ccccc3s1)C2

>  <tags>  (407) 
{'openbind_xx01zvns2b_c1_knitwork_pure', 'fragmenstein_placed'}

>  <HIPPO Pose ID>  (407) 
52608

>  <ref_pdb>  (407) 
35

>  <smiles>  (407) 
C13273-P170

>  <fragmenstein_runtime>  (407) 
2.550486

>  <fragmenstein_outcome>  (407) 
acceptable

>  <fragmenstein_mode>  (407) 
expansion

>  <fragmenstein_error>  (407) 


>  <HIPPO Compound ID>  (407) 
9743

>  <Energy>  (407) 
66.663117

>  <scratch_subdir>  (407) 
/opt/xchem-fragalysis-2/maxwin/BulkDock/SCRATCH/511032/C13273-P170

$$$$
O=C1Nc2cc(Br)ccc2[C@@H]1C1CCNCC1
     RDKit          3D

 17 19  0  0  0  0  0  0  0  0999 V2000
   -2.9523    5.2515  -17.5504 O   0  0  0  0  0  0  0  0  0  0  0  0
   -4.1226    5.1901  -17.2084 C   0  0  0  0  0  0  0  0  0  0  0  0
   -5.1875    5.0174  -18.0747 N   0  0  0  0  0  0  0  0  0  0  0  0
   -6.3672    4.8440  -17.3803 C   0  0  0  0  0  0  0  0  0  0  0  0
   -7.5946    4.5613  -17.9210 C   0  0  0  0  0  0  0  0  0  0  0  0
   -8.6388    4.3918  -17.0216 C   0  0  0  0  0  0  0  0  0  0  0  0
  -10.3762    4.2620  -17.7028 Br  0  0  0  0  0  0  0  0  0  0  0  0
   -8.4444    4.4444  -15.6331 C   0  0  0  0  0  0  0  0  0  0  0  0
   -7.1798    4.7258  -15.1161 C   0  0  0  0  0  0  0  0  0  0  0  0
   -6.1462    4.9617  -16.0081 C   0  0  0  0  0  0  0  0  0  0  0  0
   -4.6873    5.2925  -15.7619 C   0  0  2  0  0  0  0  0  0  0  0  0
   -4.4648    6.7040  -15.1640 C   0  0  0  0  0  0  0  0  0  0  0  0
   -2.9802    7.0931  -15.0573 C   0  0  0  0  0  0  0  0  0  0  0  0
   -2.8124    8.5309  -14.5444 C   0  0  0  0  0  0  0  0  0  0  0  0
   -3.8625    8.9673  -13.6218 N   0  0  0  0  0  0  0  0  0  0  0  0
   -4.3881    7.8523  -12.8499 C   0  0  0  0  0  0  0  0  0  0  0  0
   -5.1065    6.8534  -13.7620 C   0  0  0  0  0  0  0  0  0  0  0  0
  1  2  2  0
  2  3  1  0
  3  4  1  0
  4  5  2  0
  5  6  1  0
  6  7  1  0
  6  8  2  0
  8  9  1  0
  9 10  2  0
 10 11  1  0
 11 12  1  6
 12 13  1  0
 13 14  1  0
 14 15  1  0
 15 16  1  0
 16 17  1  0
 11  2  1  0
 17 12  1  0
 10  4  1  0
M  END
>  <inchikey>  (408) 
LUHIRGKXZBUQJO-UHFFFAOYSA-N

>  <alias>  (408) 
O=C1Nc2cc(Br)ccc2[C@@H]1C1CCNCC1

>  <tags>  (408) 
{'openbind_xx01zvns2b_c1_knitwork_pure', 'fragmenstein_placed'}

>  <HIPPO Pose ID>  (408) 
52621

>  <ref_pdb>  (408) 
35

>  <smiles>  (408) 
C15887-P170

>  <fragmenstein_runtime>  (408) 
0.94813

>  <fragmenstein_outcome>  (408) 
acceptable

>  <fragmenstein_mode>  (408) 
expansion

>  <fragmenstein_error>  (408) 


>  <HIPPO Compound ID>  (408) 
7474

>  <Energy>  (408) 
21.599685

>  <scratch_subdir>  (408) 
/opt/xchem-fragalysis-2/maxwin/BulkDock/SCRATCH/511032/C15887-P170

$$$$
O=C1Nc2cc(Br)ccc2[C@H]1CC1CCNCC1
     RDKit          3D

 18 20  0  0  0  0  0  0  0  0999 V2000
   -2.9281    5.4768  -17.4555 O   0  0  0  0  0  0  0  0  0  0  0  0
   -4.1023    5.3469  -17.1493 C   0  0  0  0  0  0  0  0  0  0  0  0
   -5.1355    5.0450  -18.0236 N   0  0  0  0  0  0  0  0  0  0  0  0
   -6.3237    4.8550  -17.3411 C   0  0  0  0  0  0  0  0  0  0  0  0
   -7.5369    4.5190  -17.8825 C   0  0  0  0  0  0  0  0  0  0  0  0
   -8.5925    4.3911  -16.9872 C   0  0  0  0  0  0  0  0  0  0  0  0
  -10.3232    4.2314  -17.6821 Br  0  0  0  0  0  0  0  0  0  0  0  0
   -8.4218    4.5327  -15.5992 C   0  0  0  0  0  0  0  0  0  0  0  0
   -7.1750    4.8804  -15.0802 C   0  0  0  0  0  0  0  0  0  0  0  0
   -6.1334    5.0589  -15.9734 C   0  0  0  0  0  0  0  0  0  0  0  0
   -4.7223    5.5306  -15.7430 C   0  0  1  0  0  0  0  0  0  0  0  0
   -3.9301    4.7988  -14.6571 C   0  0  0  0  0  0  0  0  0  0  0  0
   -2.9616    5.7330  -13.8982 C   0  0  0  0  0  0  0  0  0  0  0  0
   -3.6997    6.7223  -12.9721 C   0  0  0  0  0  0  0  0  0  0  0  0
   -3.7039    6.2539  -11.5189 C   0  0  0  0  0  0  0  0  0  0  0  0
   -2.3630    6.0881  -10.9617 N   0  0  0  0  0  0  0  0  0  0  0  0
   -1.3513    5.6994  -11.9457 C   0  0  0  0  0  0  0  0  0  0  0  0
   -1.9351    4.9009  -13.1067 C   0  0  0  0  0  0  0  0  0  0  0  0
  1  2  2  0
  2  3  1  0
  3  4  1  0
  4  5  2  0
  5  6  1  0
  6  7  1  0
  6  8  2  0
  8  9  1  0
  9 10  2  0
 10 11  1  0
 11 12  1  1
 12 13  1  0
 13 14  1  0
 14 15  1  0
 15 16  1  0
 16 17  1  0
 17 18  1  0
 11  2  1  0
 18 13  1  0
 10  4  1  0
M  END
>  <inchikey>  (409) 
JRKMLGBXNCZETD-UHFFFAOYSA-N

>  <alias>  (409) 
O=C1Nc2cc(Br)ccc2[C@H]1CC1CCNCC1

>  <tags>  (409) 
{'openbind_xx01zvns2b_c1_knitwork_pure', 'fragmenstein_placed'}

>  <HIPPO Pose ID>  (409) 
52622

>  <ref_pdb>  (409) 
35

>  <smiles>  (409) 
C15888-P170

>  <fragmenstein_runtime>  (409) 
1.033297

>  <fragmenstein_outcome>  (409) 
acceptable

>  <fragmenstein_mode>  (409) 
expansion

>  <fragmenstein_error>  (409) 


>  <HIPPO Compound ID>  (409) 
9038

>  <Energy>  (409) 
25.037093

>  <scratch_subdir>  (409) 
/opt/xchem-fragalysis-2/maxwin/BulkDock/SCRATCH/511032/C15888-P170

$$$$
O=C1Nc2cc(Cl)ccc2[C@H]1CC1CCNCC1
     RDKit          3D

 18 20  0  0  0  0  0  0  0  0999 V2000
   -3.0508    5.4169  -17.4677 O   0  0  0  0  0  0  0  0  0  0  0  0
   -4.2286    5.3181  -17.1641 C   0  0  0  0  0  0  0  0  0  0  0  0
   -5.2543    4.9861  -18.0396 N   0  0  0  0  0  0  0  0  0  0  0  0
   -6.4548    4.8333  -17.3679 C   0  0  0  0  0  0  0  0  0  0  0  0
   -7.6628    4.4705  -17.9108 C   0  0  0  0  0  0  0  0  0  0  0  0
   -8.7307    4.3690  -17.0261 C   0  0  0  0  0  0  0  0  0  0  0  0
  -10.3108    4.2084  -17.6629 Cl  0  0  0  0  0  0  0  0  0  0  0  0
   -8.5678    4.5544  -15.6414 C   0  0  0  0  0  0  0  0  0  0  0  0
   -7.3298    4.9363  -15.1207 C   0  0  0  0  0  0  0  0  0  0  0  0
   -6.2816    5.1008  -16.0084 C   0  0  0  0  0  0  0  0  0  0  0  0
   -4.8757    5.6069  -15.7870 C   0  0  1  0  0  0  0  0  0  0  0  0
   -4.1548    5.0198  -14.5764 C   0  0  0  0  0  0  0  0  0  0  0  0
   -2.7223    5.5329  -14.3288 C   0  0  0  0  0  0  0  0  0  0  0  0
   -2.6340    7.0614  -14.2183 C   0  0  0  0  0  0  0  0  0  0  0  0
   -1.2214    7.5138  -13.8465 C   0  0  0  0  0  0  0  0  0  0  0  0
   -0.7621    6.8834  -12.6101 N   0  0  0  0  0  0  0  0  0  0  0  0
   -0.7594    5.4257  -12.7292 C   0  0  0  0  0  0  0  0  0  0  0  0
   -2.1549    4.8949  -13.0483 C   0  0  0  0  0  0  0  0  0  0  0  0
  1  2  2  0
  2  3  1  0
  3  4  1  0
  4  5  2  0
  5  6  1  0
  6  7  1  0
  6  8  2  0
  8  9  1  0
  9 10  2  0
 10 11  1  0
 11 12  1  1
 12 13  1  0
 13 14  1  0
 14 15  1  0
 15 16  1  0
 16 17  1  0
 17 18  1  0
 11  2  1  0
 18 13  1  0
 10  4  1  0
M  END
>  <inchikey>  (410) 
QSOCEAPYGHKFRB-UHFFFAOYSA-N

>  <alias>  (410) 
O=C1Nc2cc(Cl)ccc2[C@H]1CC1CCNCC1

>  <tags>  (410) 
{'openbind_xx01zvns2b_c1_knitwork_pure', 'fragmenstein_placed'}

>  <HIPPO Pose ID>  (410) 
52626

>  <ref_pdb>  (410) 
35

>  <smiles>  (410) 
C15903-P170

>  <fragmenstein_runtime>  (410) 
0.911731

>  <fragmenstein_outcome>  (410) 
acceptable

>  <fragmenstein_mode>  (410) 
expansion

>  <fragmenstein_error>  (410) 


>  <HIPPO Compound ID>  (410) 
14578

>  <Energy>  (410) 
15.631023

>  <scratch_subdir>  (410) 
/opt/xchem-fragalysis-2/maxwin/BulkDock/SCRATCH/511032/C15903-P170

$$$$
CC(C)(C(=O)NCc1nnc2ccc(Cl)cn12)C1CCNCC1
     RDKit          3D

 23 25  0  0  0  0  0  0  0  0999 V2000
   -6.2275    8.2017  -11.6133 C   0  0  0  0  0  0  0  0  0  0  0  0
   -7.7674    8.0988  -11.4637 C   0  0  0  0  0  0  0  0  0  0  0  0
   -8.0847    7.6125  -10.0333 C   0  0  0  0  0  0  0  0  0  0  0  0
   -8.3711    7.0628  -12.4888 C   0  0  0  0  0  0  0  0  0  0  0  0
   -9.2727    7.3409  -13.1740 O   0  0  0  0  0  0  0  0  0  0  0  0
   -7.5661    5.7458  -12.3770 N   0  0  0  0  0  0  0  0  0  0  0  0
   -7.6436    4.5351  -13.1502 C   0  0  0  0  0  0  0  0  0  0  0  0
   -6.8236    4.7435  -14.3706 C   0  0  0  0  0  0  0  0  0  0  0  0
   -5.5498    5.0990  -14.3983 N   0  0  0  0  0  0  0  0  0  0  0  0
   -5.1605    5.2270  -15.7106 N   0  0  0  0  0  0  0  0  0  0  0  0
   -6.1979    4.9448  -16.4653 C   0  0  0  0  0  0  0  0  0  0  0  0
   -6.3786    4.9063  -17.8745 C   0  0  0  0  0  0  0  0  0  0  0  0
   -7.5912    4.6050  -18.3743 C   0  0  0  0  0  0  0  0  0  0  0  0
   -8.7173    4.3415  -17.5006 C   0  0  0  0  0  0  0  0  0  0  0  0
  -10.2624    4.1382  -18.1824 Cl  0  0  0  0  0  0  0  0  0  0  0  0
   -8.5453    4.3391  -16.1718 C   0  0  0  0  0  0  0  0  0  0  0  0
   -7.2890    4.6345  -15.6622 N   0  0  0  0  0  0  0  0  0  0  0  0
   -8.3656    9.5536  -11.6665 C   0  0  0  0  0  0  0  0  0  0  0  0
   -7.8927   10.2524  -12.9594 C   0  0  0  0  0  0  0  0  0  0  0  0
   -8.6040   11.5929  -13.1432 C   0  0  0  0  0  0  0  0  0  0  0  0
  -10.0578   11.4975  -13.2269 N   0  0  0  0  0  0  0  0  0  0  0  0
  -10.5980   10.2206  -12.7613 C   0  0  0  0  0  0  0  0  0  0  0  0
   -9.8988    9.6909  -11.5066 C   0  0  0  0  0  0  0  0  0  0  0  0
  1  2  1  0
  2  3  1  0
  2  4  1  0
  4  5  2  0
  4  6  1  0
  6  7  1  0
  7  8  1  0
  8  9  2  0
  9 10  1  0
 10 11  2  0
 11 12  1  0
 12 13  2  0
 13 14  1  0
 14 15  1  0
 14 16  2  0
 16 17  1  0
  2 18  1  0
 18 19  1  0
 19 20  1  0
 20 21  1  0
 21 22  1  0
 22 23  1  0
 17  8  1  0
 23 18  1  0
 17 11  1  0
M  END
>  <inchikey>  (411) 
BPATVBJXELODQX-UHFFFAOYSA-N

>  <alias>  (411) 
CC(C)(C(=O)NCc1nnc2ccc(Cl)cn12)C1CCNCC1

>  <tags>  (411) 
{'openbind_xx01zvns2b_c1_knitwork_pure', 'fragmenstein_placed'}

>  <HIPPO Pose ID>  (411) 
52643

>  <ref_pdb>  (411) 
35

>  <smiles>  (411) 
C15973-P58

>  <fragmenstein_runtime>  (411) 
5.276021

>  <fragmenstein_outcome>  (411) 
acceptable

>  <fragmenstein_mode>  (411) 
expansion

>  <fragmenstein_error>  (411) 


>  <HIPPO Compound ID>  (411) 
5939

>  <Energy>  (411) 
26.593244

>  <scratch_subdir>  (411) 
/opt/xchem-fragalysis-2/maxwin/BulkDock/SCRATCH/511032/C15973-P58

$$$$
